  98
scf done:    -2160.880718
 C     1.289616     0.356504    -3.184469
 H     0.817383     0.982155    -3.957748
 H     2.302391     0.767112    -3.054744
 C     1.341377    -1.084667    -3.671402
 H     1.833686    -1.174414    -4.658796
 H     1.889637    -1.746437    -2.979593
 H     0.331511    -1.514275    -3.786794
Rh     0.147832     0.346601    -1.407285
 O     2.247802    -2.013084     0.193757
 C     3.653572    -0.172340    -1.027022
 C     2.163828     0.442763     1.352204
 O    -0.897060    -0.363604     1.765618
 C    -2.685399     1.296473     0.494607
 C    -2.458794    -1.484014    -0.253729
 P    -1.430592    -0.028998     0.224413
 P     2.009536    -0.425479    -0.258602
 C    -0.666104     1.855664    -2.076622
 O    -1.025000     2.906513    -2.393170
 C     1.144578    -2.841274     0.546695
 H     0.327804    -2.207560     0.933509
 C     1.609422    -3.754297     1.662586
 H     1.953080    -3.161440     2.522756
 H     2.447407    -4.381764     1.321601
 H     0.793204    -4.413574     1.995129
 C     0.659391    -3.592904    -0.678122
 H     0.328603    -2.887554    -1.455894
 H     1.473131    -4.205151    -1.096358
 H    -0.182683    -4.257339    -0.428814
 H     3.630284    -0.716990    -1.984412
 H     3.709424     0.896955    -1.290276
 C     4.857078    -0.603693    -0.201727
 H     4.925886     0.008193     0.714208
 H     4.709592    -1.643195     0.133379
 C     6.165939    -0.489596    -0.971433
 H     6.296929     0.549869    -1.324306
 H     6.105986    -1.108100    -1.885519
 C     7.385405    -0.905171    -0.160429
 H     7.442659    -0.283084     0.750616
 H     7.244450    -1.941053     0.195816
 C     8.690210    -0.801414    -0.933435
 H     9.552325    -1.107448    -0.321438
 H     8.872611     0.231227    -1.272295
 H     8.674806    -1.441735    -1.830161
 H     1.279160     0.128957     1.926715
 H     3.058185     0.063624     1.872582
 C     2.182228     1.958661     1.210654
 H     3.099661     2.279940     0.685761
 H     1.342636     2.261384     0.558959
 C     2.085607     2.686729     2.543392
 H     2.917906     2.372439     3.199909
 H     1.161517     2.369127     3.058844
 C     2.089793     4.202877     2.409550
 H     3.015173     4.518680     1.896048
 H     1.263273     4.506728     1.743048
 C     1.969082     4.927393     3.740375
 H     1.973319     6.020472     3.611902
 H     2.802271     4.668514     4.413722
 H     1.034357     4.657308     4.258329
 C    -1.664336    -0.466960     2.962637
 H    -2.739671    -0.487106     2.715760
 C    -1.383944     0.742490     3.834589
 H    -1.635836     1.673570     3.306762
 H    -0.317060     0.780316     4.101669
 H    -1.972416     0.700702     4.763571
 C    -1.292490    -1.772852     3.637673
 H    -1.508345    -2.628948     2.981735
 H    -0.216370    -1.786787     3.868313
 H    -1.851921    -1.903709     4.576086
 H    -3.248413     1.118694     1.424904
 H    -2.100357     2.218843     0.646866
 C    -3.644766     1.466050    -0.679992
 H    -3.108155     1.313015    -1.631422
 H    -4.416864     0.678504    -0.642259
 C    -4.312527     2.833023    -0.711963
 H    -3.528942     3.608302    -0.780910
 H    -4.837910     3.012394     0.244207
 C    -5.286398     3.000332    -1.869344
 H    -4.747664     2.819149    -2.815903
 H    -6.061777     2.215584    -1.809465
 C    -5.944845     4.369672    -1.909525
 H    -6.639500     4.462073    -2.758069
 H    -5.193204     5.169333    -2.006566
 H    -6.516894     4.566281    -0.988227
 H    -2.807249    -1.228228    -1.269969
 H    -1.750262    -2.315002    -0.396073
 C    -3.631101    -1.926335     0.611863
 H    -3.261974    -2.303197     1.579347
 H    -4.283969    -1.067480     0.846225
 C    -4.466474    -3.014689    -0.050364
 H    -3.814166    -3.870046    -0.304315
 H    -4.853513    -2.639366    -1.015068
 C    -5.626302    -3.498288     0.808708
 H    -5.232358    -3.870794     1.771173
 H    -6.269850    -2.637549     1.064009
 C    -6.460312    -4.581249     0.143727
 H    -7.289306    -4.909643     0.788604
 H    -5.849679    -5.467969    -0.090731
 H    -6.896520    -4.224310    -0.803026
