  96
scf done:    -2383.117756
 C    -0.237567    -2.268609     2.588641
 H     0.400107    -3.161321     2.688322
 H     0.160106    -1.536223     3.308885
 C    -1.680381    -2.617956     2.926379
 H    -2.074182    -3.413860     2.273946
 H    -1.788489    -2.971621     3.969178
 H    -2.357814    -1.753058     2.817635
Rh    -0.305621    -1.503382     0.611618
 O     1.280832     1.257366     0.124484
 O    -0.252764     1.671484     2.010191
 O     1.751868     0.322596     2.462784
 O     0.329385    -0.249842    -2.529764
 O    -1.860880    -1.392737    -2.374167
 O    -1.492385     0.863110    -1.292741
 P    -0.803845    -0.594403    -1.404163
 P     0.572407     0.442485     1.329166
 C     0.056352    -3.244411     0.036596
 O     0.500383    -4.249347    -0.307290
 C     1.942872     2.506534     0.299485
 H     1.185588     3.307368     0.308651
 H     2.460514     2.520035     1.271670
 C     2.919225     2.688081    -0.840284
 H     3.487331     3.618356    -0.663784
 H     3.655219     1.865798    -0.801988
 C     2.258972     2.719944    -2.211839
 H     1.603183     3.606365    -2.273503
 H     1.598394     1.843207    -2.304905
 C     3.260344     2.739876    -3.354370
 H     3.932317     3.611615    -3.293741
 H     3.894189     1.837701    -3.341773
 H     2.757490     2.774815    -4.332765
 C    -1.115604     1.428262     3.114877
 H    -1.229263     0.341799     3.277474
 H    -0.640081     1.849847     4.015053
 C    -2.464081     2.060936     2.856143
 H    -3.052211     2.015483     3.789626
 H    -2.308625     3.132304     2.637901
 C    -3.231093     1.406023     1.716404
 H    -3.419521     0.347809     1.971804
 H    -2.594970     1.383039     0.817798
 C    -4.544527     2.103417     1.405758
 H    -5.230123     2.084059     2.268513
 H    -4.378885     3.160696     1.143889
 H    -5.063601     1.630947     0.559133
 C     2.700937    -0.737951     2.411109
 H     2.886137    -1.037441     3.455028
 H     2.256691    -1.601479     1.885391
 C     3.986781    -0.305672     1.737204
 H     4.645208    -1.189007     1.664237
 H     3.758616    -0.013440     0.697717
 C     4.715650     0.822179     2.453100
 H     5.004260     0.479821     3.462643
 H     4.013504     1.656988     2.613917
 C     5.942961     1.311857     1.702448
 H     6.668231     0.497211     1.544503
 H     5.671201     1.704745     0.709357
 H     6.459942     2.116333     2.247131
 C     1.249073    -1.265517    -2.905206
 H     0.748035    -2.251242    -2.901604
 H     1.526289    -1.056697    -3.950556
 C     2.472248    -1.291161    -2.012008
 H     2.972860    -0.309941    -2.062653
 H     2.133299    -1.411678    -0.968485
 C     3.440549    -2.404766    -2.378636
 H     3.766309    -2.283407    -3.427480
 H     2.910527    -3.372726    -2.336185
 C     4.655711    -2.456575    -1.467004
 H     5.211099    -1.504848    -1.484114
 H     4.356557    -2.642653    -0.423551
 H     5.351915    -3.255995    -1.762032
 C    -2.581704    -2.548625    -1.973208
 H    -3.122916    -2.871672    -2.876514
 H    -1.877882    -3.354740    -1.706073
 C    -3.550598    -2.311972    -0.833277
 H    -4.050971    -3.275253    -0.627908
 H    -2.975214    -2.071676     0.081632
 C    -4.590858    -1.232524    -1.093668
 H    -5.069085    -1.414817    -2.072598
 H    -4.082820    -0.257706    -1.180793
 C    -5.653291    -1.171419    -0.008528
 H    -6.203433    -2.123369     0.064464
 H    -5.204786    -0.975716     0.978114
 H    -6.389432    -0.376698    -0.202152
 C    -1.857769     1.662431    -2.414566
 H    -0.955431     1.872753    -3.011335
 H    -2.563595     1.099341    -3.047195
 C    -2.478225     2.939605    -1.896025
 H    -2.798754     3.538606    -2.766468
 H    -3.396614     2.689691    -1.337011
 C    -1.541484     3.753129    -1.013250
 H    -0.635909     4.004727    -1.592676
 H    -1.198243     3.118599    -0.180407
 C    -2.175053     5.023511    -0.472364
 H    -2.499780     5.694080    -1.284608
 H    -3.062996     4.796982     0.139404
 H    -1.473136     5.585322     0.162536
