 100
scf done:    -2835.248537
 C    -1.294179    -2.974076    -2.226624
 H    -0.827358    -3.961961    -2.356119
 H    -2.277486    -3.140837    -1.765997
 C    -1.418520    -2.274717    -3.571257
 H    -1.975663    -2.891779    -4.301611
 H    -1.950034    -1.311901    -3.495804
 H    -0.434558    -2.066264    -4.024290
Rh    -0.111302    -1.654657    -1.081618
 O    -2.420558     0.893591    -1.170875
 O    -3.354520    -1.420888    -0.586273
 O    -2.014873    -0.031387     1.076346
 O     2.149696    -0.148809     1.071115
 O     2.489083     0.333383    -1.372606
 O     0.576253     1.406209    -0.140573
 P     1.295130    -0.065206    -0.303421
 P    -1.975914    -0.511683    -0.512362
 C     0.959316    -3.141484    -0.756647
 O     1.513254    -4.097841    -0.441784
 C    -3.171971     1.944702    -0.545432
 H    -3.912942     2.272731    -1.291223
 H    -3.723473     1.552916     0.321387
 C    -2.252532     3.070318    -0.134422
 H    -1.468719     2.647162     0.508869
 H    -1.738718     3.465091    -1.026015
 C    -2.961253     4.198858     0.597147
 H    -3.482360     3.791186     1.482031
 H    -3.751687     4.626767    -0.045027
 C    -1.997326     5.293096     1.029525
 H    -1.217092     4.891681     1.695796
 H    -1.480481     5.733339     0.162001
 H    -2.513312     6.105571     1.562990
 C    -4.607097    -0.940460    -0.277953
 C    -5.026654    -0.909563     1.050246
 H    -4.350781    -1.264834     1.829953
 C    -5.438035    -0.521957    -1.327797
 C    -4.963151    -0.591513    -2.746734
 H    -4.112491     0.087755    -2.913061
 H    -4.609236    -1.603488    -2.995605
 H    -5.766742    -0.319804    -3.444265
 C    -6.296504    -0.427090     1.358361
 H    -6.627580    -0.398740     2.398920
 C    -6.708039    -0.045548    -0.987937
 H    -7.374677     0.286102    -1.788718
 C    -7.136846     0.011702     0.337301
 H    -8.134126     0.391261     0.570645
 C    -1.553345    -0.777269     2.125770
 C    -1.584564    -2.172711     2.121511
 H    -1.978327    -2.705620     1.254563
 C    -1.066502    -0.057604     3.228606
 C    -1.060233     1.438584     3.197127
 H    -0.503757     1.805301     2.322860
 H    -2.082360     1.839310     3.106274
 H    -0.605197     1.853042     4.106707
 C    -1.102149    -2.873069     3.226651
 H    -1.118850    -3.965128     3.217663
 C    -0.601770    -0.787816     4.325096
 H    -0.220365    -0.242479     5.192826
 C    -0.609023    -2.182735     4.330537
 H    -0.234154    -2.727857     5.199481
 C     2.115651    -1.277811     1.948914
 H     2.006309    -0.868819     2.964351
 H     1.216894    -1.880424     1.738882
 C     3.376193    -2.102326     1.827017
 H     3.265852    -2.974678     2.495337
 H     3.440832    -2.513212     0.805064
 C     4.651728    -1.340575     2.155139
 H     4.583662    -0.948846     3.186093
 H     4.719351    -0.459956     1.497183
 C     5.903449    -2.187929     2.004395
 H     5.887253    -3.060869     2.677396
 H     6.000324    -2.563496     0.973463
 H     6.811581    -1.607786     2.227425
 C     3.850509     0.322243    -1.166919
 C     4.464891     1.417223    -0.561684
 H     3.849910     2.253629    -0.228726
 C     4.592186    -0.773373    -1.631045
 C     3.927273    -1.940328    -2.295674
 H     3.650334    -2.714988    -1.562430
 H     3.003268    -1.638494    -2.807541
 H     4.601418    -2.411340    -3.024659
 C     5.845054     1.424092    -0.385465
 H     6.323458     2.280565     0.094822
 C     5.979579    -0.734767    -1.446105
 H     6.578054    -1.576998    -1.804394
 C     6.606201     0.342207    -0.825246
 H     7.690276     0.339450    -0.691839
 C     1.212471     2.622602    -0.104143
 C     1.731685     3.097229     1.097940
 H     1.683727     2.459264     1.980952
 C     1.268238     3.372821    -1.287659
 C     0.726026     2.809942    -2.564518
 H     1.397465     2.026707    -2.950849
 H    -0.252055     2.332470    -2.403959
 H     0.625673     3.590244    -3.330949
 C     2.322995     4.358342     1.139547
 H     2.734422     4.734796     2.078748
 C     1.863708     4.636012    -1.214232
 H     1.918592     5.243388    -2.121667
 C     2.386529     5.129628    -0.019334
 H     2.845659     6.120400     0.004795
