 100
scf done:    -2462.624702
 C    -0.156996     0.660648    -3.243078
 H    -0.851748     0.039383    -3.837494
 H    -0.661907     1.631624    -3.101971
 C     1.123547     0.891939    -4.034259
 H     1.589511    -0.053520    -4.352623
 H     0.939979     1.485794    -4.949765
 H     1.876467     1.432232    -3.438624
Rh     0.129184    -0.083581    -1.285809
 C    -3.086037     1.513274    -1.950760
 C    -2.929638    -1.342457    -1.914440
 C    -3.103322     0.045933     0.564719
 C    -0.145623    -1.068229     2.321042
 C     2.246907    -1.905207     0.978801
 C     1.757430     0.970319     1.546211
 P     0.933304    -0.561730     0.879872
 P    -2.184027     0.136018    -1.051715
 C     1.285694    -1.284243    -2.036247
 O     1.817102    -2.197991    -2.511570
 H    -2.818093     1.306943    -3.001445
 C    -4.604345     1.493132    -1.823692
 H    -5.042985     2.257085    -2.485971
 H    -5.051914     0.529012    -2.105634
 H    -4.922332     1.736084    -0.798253
 C    -2.532877     2.888422    -1.588445
 H    -1.434850     2.901361    -1.603706
 H    -2.887840     3.641368    -2.310481
 H    -2.860027     3.203617    -0.587513
 H    -4.021341    -1.209046    -1.952074
 H    -2.545765    -1.288711    -2.943969
 C    -2.594321    -2.663618    -1.291372
 C    -1.422726    -3.345228    -1.641860
 H    -0.759819    -2.920013    -2.395390
 C    -3.439002    -3.236044    -0.333913
 H    -4.367748    -2.721869    -0.067186
 C    -1.108544    -4.557192    -1.034532
 H    -0.192819    -5.080603    -1.320189
 C    -3.135396    -4.450131     0.292233
 C    -4.037463    -5.010705     1.353434
 H    -5.090016    -4.749482     1.169870
 H    -3.961511    -6.106082     1.411659
 H    -3.770632    -4.611468     2.346870
 C    -1.954380    -5.105194    -0.071664
 H    -1.699472    -6.058346     0.399931
 H    -4.149541    -0.224303     0.355955
 H    -2.668824    -0.809264     1.106083
 C    -3.060852     1.294235     1.400666
 C    -1.866337     1.991766     1.614822
 H    -0.955874     1.635149     1.133056
 C    -4.230311     1.796724     1.979428
 H    -5.173425     1.265607     1.814566
 C    -1.848208     3.151562     2.382162
 H    -0.908691     3.692247     2.523683
 C    -4.234605     2.960009     2.758424
 C    -5.504973     3.452481     3.389008
 H    -6.380251     3.230008     2.761300
 H    -5.672449     2.968068     4.365613
 H    -5.474502     4.537543     3.563338
 C    -3.024443     3.634871     2.951623
 H    -3.006557     4.551319     3.547635
 H    -0.953926    -0.319342     2.304539
 C    -0.749236    -2.440089     2.045850
 H    -1.554077    -2.661044     2.765251
 H    -1.168128    -2.510880     1.032077
 H     0.000350    -3.240790     2.143458
 C     0.520864    -0.999747     3.688824
 H     0.866324     0.013405     3.938879
 H    -0.195095    -1.303902     4.469672
 H     1.383462    -1.681574     3.763678
 H     2.095173    -2.431785     1.931713
 H     2.005986    -2.615518     0.175946
 C     3.676418    -1.463026     0.889149
 C     4.339544    -1.352315    -0.336804
 H     3.819204    -1.602727    -1.261570
 C     4.383107    -1.152285     2.060154
 H     3.880635    -1.256359     3.027452
 C     5.666964    -0.929935    -0.378540
 H     6.173735    -0.845424    -1.342837
 C     5.712932    -0.724887     2.036200
 C     6.444126    -0.388620     3.303877
 H     6.734232     0.674214     3.325239
 H     5.825789    -0.584776     4.191071
 H     7.370067    -0.977134     3.399648
 C     6.348860    -0.613921     0.792428
 H     7.390234    -0.282975     0.746205
 H     0.967945     1.510593     2.093244
 H     2.528348     0.695187     2.279263
 C     2.334763     1.843906     0.466989
 C     3.715260     1.922989     0.270263
 H     4.387394     1.349848     0.911095
 C     1.492385     2.587014    -0.369636
 H     0.409570     2.550246    -0.210305
 C     4.233069     2.718923    -0.748014
 H     5.314497     2.766835    -0.897546
 C     1.996841     3.403516    -1.388049
 C     1.071983     4.192429    -2.267679
 H     0.288010     4.694051    -1.680920
 H     1.616162     4.959444    -2.836396
 H     0.566568     3.535820    -2.994173
 C     3.383166     3.452735    -1.571047
 H     3.797905     4.081099    -2.364005
