  80
scf done:    -4287.017858
 C    -0.508130    -3.224740    -1.231125
 H    -0.765356    -4.113551    -0.635556
 H    -1.436289    -2.963566    -1.765774
 C     0.603377    -3.543263    -2.222101
 H     1.526080    -3.872471    -1.718552
 H     0.311726    -4.346031    -2.924922
 H     0.879035    -2.669143    -2.837060
Rh     0.249718    -1.657757    -0.004028
 C    -1.079330    -0.053293    -2.881206
 O    -2.810480    -0.938600    -1.122967
 O    -1.439888     1.104199    -0.353812
 C     1.027468     0.548371     2.755056
 O     2.987208    -0.449685     1.290878
 O     1.531312     1.355834     0.118036
 P     1.387164    -0.021612     1.043067
 P    -1.248095    -0.377472    -1.082877
 C     0.806255    -3.015400     1.172899
 O     1.016421    -3.831449     1.950073
 H    -0.979927    -1.089770    -3.255166
 C    -2.269329     0.597305    -3.575917
 H    -2.124268     0.553318    -4.666925
 H    -3.207964     0.081854    -3.333340
 H    -2.377813     1.654647    -3.297421
 C     0.243036     0.665481    -3.129939
 H     1.082825     0.131504    -2.660869
 H     0.439517     0.731213    -4.210696
 H     0.231715     1.687339    -2.723608
 C    -3.414063    -1.682472    -0.149599
 C    -4.500327    -2.464591    -0.543155
 H    -4.795201    -2.465726    -1.593888
 C    -3.011576    -1.663107     1.186481
 H    -2.147502    -1.069611     1.490479
 C    -5.185723    -3.229230     0.393817
 H    -6.034996    -3.845280     0.094686
 C    -3.692653    -2.434404     2.124958
 H    -3.380223    -2.432780     3.170245
 C    -4.776725    -3.213086     1.727503
Cl    -5.625483    -4.168531     2.897748
 C    -2.363784     2.074231    -0.623985
 C    -3.707212     1.903492    -0.287789
 H    -4.038270     0.969473     0.167507
 C    -1.926975     3.278304    -1.179227
 H    -0.871241     3.395904    -1.429544
 C    -4.616280     2.928853    -0.531047
 H    -5.669976     2.805396    -0.276190
 C    -2.832613     4.307105    -1.417663
 H    -2.501869     5.250816    -1.854133
 C    -4.177799     4.125081    -1.097559
Cl    -5.310837     5.399465    -1.398585
 H     0.903303    -0.434978     3.247817
 C     2.131803     1.312218     3.477418
 H     1.872252     1.401518     4.544306
 H     3.098121     0.796698     3.400276
 H     2.251052     2.329676     3.079655
 C    -0.316924     1.268902     2.792355
 H    -1.093045     0.728492     2.232506
 H    -0.654452     1.379434     3.833893
 H    -0.239778     2.275119     2.356793
 C     3.592744    -1.309678     0.414845
 C     3.514043    -1.117524    -0.966695
 H     2.977487    -0.254200    -1.364212
 C     4.290676    -2.398655     0.933906
 H     4.330728    -2.534869     2.015841
 C     4.118054    -2.027912    -1.828975
 H     4.053046    -1.895184    -2.909807
 C     4.900441    -3.306385     0.074103
 H     5.440297    -4.168729     0.467994
 C     4.804823    -3.121128    -1.305267
Cl     5.541111    -4.264781    -2.377728
 C     2.225625     2.495101     0.418610
 C     3.620638     2.502778     0.472443
 H     4.174359     1.577942     0.310031
 C     1.509426     3.676778     0.614638
 H     0.420110     3.651477     0.556878
 C     4.294861     3.688220     0.749202
 H     5.384593     3.705815     0.800661
 C     2.181597     4.864087     0.886955
 H     1.630513     5.792253     1.046099
 C     3.574271     4.863450     0.959844
Cl     4.415991     6.336766     1.305626
