  82
scf done:    -4437.427564
 C    -1.183168     2.037353     2.978128
 H    -1.561126     1.924517     4.005103
 H    -0.089964     2.119080     3.058726
 C    -1.772857     3.287085     2.342323
 H    -1.494812     4.196233     2.907052
 H    -1.419134     3.435859     1.309491
 H    -2.874741     3.258019     2.318553
Rh    -1.718986     0.412269     1.731284
 O     0.253655     0.749911    -1.100153
 O     0.921379     2.274404     0.827751
 O     1.293559    -0.270080     0.925859
 O    -3.194590    -2.470113     1.255558
 O    -4.043511    -0.754511    -0.339542
 O    -1.961711    -1.898204    -0.893922
 P    -2.650365    -1.188802     0.454545
 P     0.163652     0.835062     0.526870
 C    -2.486825    -0.285277     3.284430
 O    -2.842892    -0.749042     4.268354
 C    -0.738229     1.399448    -1.919234
 H    -1.701480     1.344900    -1.383322
 C    -0.830496     0.601627    -3.198630
 H    -1.162385    -0.422427    -2.983975
 H     0.151405     0.562500    -3.695094
 H    -1.551716     1.068060    -3.884082
 C    -0.387296     2.857191    -2.141476
 H    -0.274942     3.389921    -1.186672
 H     0.552814     2.955846    -2.706188
 H    -1.187592     3.349760    -2.713156
 C     2.272282     2.499603     0.739134
 C     2.955185     2.389854    -0.472690
 H     2.408254     2.126033    -1.377027
 C     2.955508     2.831321     1.907163
 H     2.395481     2.924067     2.839533
 C     4.335322     2.555793    -0.504082
 H     4.887635     2.435564    -1.436975
 C     4.335109     3.009850     1.876814
 H     4.886046     3.254443     2.786282
 C     5.020775     2.851019     0.673387
Cl     6.745729     3.002958     0.643975
 C     2.518965    -0.558022     0.367325
 C     3.638507    -0.475863     1.191967
 H     3.514010    -0.152632     2.226096
 C     2.639390    -0.981299    -0.954431
 H     1.750147    -1.066580    -1.576418
 C     4.898085    -0.768279     0.681437
 H     5.787276    -0.677545     1.306721
 C     3.897851    -1.284723    -1.463383
 H     4.009391    -1.624502    -2.493963
 C     5.022703    -1.164085    -0.649556
Cl     6.590993    -1.515558    -1.296402
 C    -3.953260    -3.543015     0.650591
 H    -3.912647    -3.415701    -0.443762
 C    -5.385954    -3.427036     1.123324
 H    -5.811167    -2.460281     0.820817
 H    -5.433986    -3.505864     2.219955
 H    -5.998479    -4.230884     0.688338
 C    -3.282026    -4.842620     1.035042
 H    -2.245091    -4.870285     0.671004
 H    -3.270556    -4.957387     2.129538
 H    -3.825298    -5.694864     0.600810
 C    -4.122286     0.478417    -0.930268
 C    -4.268347     0.551719    -2.313527
 H    -4.334567    -0.373630    -2.887705
 C    -4.036959     1.643035    -0.163718
 H    -3.941999     1.563981     0.923872
 C    -4.296283     1.793984    -2.940973
 H    -4.398296     1.868969    -4.024767
 C    -4.046049     2.886049    -0.789462
 H    -3.949781     3.801295    -0.203825
 C    -4.162408     2.953330    -2.177269
Cl    -4.115232     4.494629    -2.967826
 C    -0.800316    -2.615406    -0.885438
 C    -0.327182    -3.056877    -2.123589
 H    -0.899968    -2.822331    -3.022260
 C    -0.098071    -2.929708     0.280827
 H    -0.456690    -2.591628     1.254672
 C     0.852195    -3.788877    -2.203040
 H     1.229753    -4.130834    -3.167925
 C     1.088174    -3.654066     0.199621
 H     1.657625    -3.875797     1.103086
 C     1.564185    -4.075717    -1.039003
Cl     3.067758    -4.927067    -1.140524
