  78
scf done:    -2147.451205
 C    -1.447057    -2.927800    -0.230975
 H    -1.018020    -3.912941     0.008147
 H    -2.275852    -2.768766     0.472723
 C    -1.947896    -2.930615    -1.669056
 H    -2.647396    -3.767763    -1.853676
 H    -2.484637    -2.003836    -1.926908
 H    -1.125084    -3.039388    -2.395231
Rh    -0.029235    -1.346802    -0.007461
 O    -2.363199     0.741907    -1.389868
 O    -3.242188    -0.633202     0.449864
 O    -1.817968     1.424235     0.915973
 O     2.326657     0.606014     1.468656
 O     2.978334    -0.172775    -0.765998
 O     1.287304     1.727006    -0.453706
 P     1.603771     0.212206     0.050287
 P    -1.856491     0.066136     0.004876
 C     1.107280    -2.755652     0.399607
 O     1.764815    -3.640863     0.724027
 C    -1.452593     1.488711    -2.210375
 H    -0.671339     1.918974    -1.564046
 C    -2.248156     2.608617    -2.843410
 H    -2.698885     3.241108    -2.065319
 H    -3.055479     2.203074    -3.472903
 H    -1.598164     3.235092    -3.472771
 C    -0.808361     0.555118    -3.214873
 H    -0.268172    -0.251767    -2.692755
 H    -1.571034     0.093647    -3.860707
 H    -0.093595     1.100613    -3.849351
 C    -4.511326     0.042226     0.413549
 H    -4.325293     1.128727     0.372117
 C    -5.234744    -0.299044     1.698426
 H    -4.659767     0.037528     2.572097
 H    -5.375748    -1.387731     1.778046
 H    -6.222966     0.183904     1.723629
 C    -5.262636    -0.395185    -0.827362
 H    -4.695511    -0.125829    -1.727750
 H    -5.410354    -1.485959    -0.816624
 H    -6.249256     0.090758    -0.871030
 C    -1.076525     1.517408     2.137857
 H    -0.028929     1.243474     1.930113
 C    -1.627091     0.575354     3.190587
 H    -1.569052    -0.470741     2.853403
 H    -2.677986     0.813266     3.415717
 H    -1.044887     0.664735     4.119743
 C    -1.132977     2.970086     2.553518
 H    -0.758924     3.610123     1.743136
 H    -2.168643     3.266923     2.780140
 H    -0.515091     3.139697     3.447558
 C     2.914333    -0.416836     2.281989
 H     3.133592    -1.291760     1.644700
 C     1.936306    -0.820554     3.366006
 H     0.999731    -1.183275     2.915565
 H     1.704526     0.040655     4.011827
 H     2.356659    -1.622956     3.990533
 C     4.223243     0.130721     2.808465
 H     4.883765     0.401857     1.972670
 H     4.044323     1.030203     3.417773
 H     4.733801    -0.617041     3.433335
 C     2.958064    -1.025072    -1.915802
 H     1.981910    -1.548403    -1.936604
 C     4.065498    -2.042921    -1.750169
 H     3.903936    -2.648579    -0.847110
 H     5.039137    -1.536727    -1.660376
 H     4.102473    -2.719916    -2.616474
 C     3.095913    -0.181709    -3.167106
 H     2.258907     0.525502    -3.250429
 H     4.036256     0.390751    -3.145090
 H     3.095755    -0.817361    -4.065075
 C     2.294222     2.752545    -0.535837
 H     3.281674     2.262559    -0.517289
 C     2.165699     3.680705     0.654031
 H     2.269373     3.114869     1.588892
 H     1.185044     4.180066     0.647607
 H     2.946864     4.455262     0.620265
 C     2.107348     3.459225    -1.861992
 H     2.216523     2.756286    -2.699545
 H     1.105922     3.913994    -1.917118
 H     2.854967     4.257536    -1.981326
