 116
scf done:    -3292.850010
 C     1.455034     1.972248     2.406229
 H     1.223911     1.858443     3.480121
 H     2.408916     1.438904     2.260298
 C     1.654491     3.445639     2.077772
 H     0.776274     4.050712     2.357085
 H     2.525326     3.885739     2.603418
 H     1.822706     3.607467     1.000389
Rh    -0.147406     1.030536     1.326446
 O     1.299521    -0.988878    -1.098794
 C     2.531017     1.470244    -0.668372
 C     2.822143    -0.924608     1.065240
 O    -2.868014    -0.819848     1.334787
 C    -3.283833     1.189958    -0.309039
 C    -1.778155    -1.181772    -1.066764
 P    -1.942168     0.069226     0.275263
 P     1.608247     0.081658     0.119721
 C    -1.239681     2.139358     2.299144
 O    -1.892528     2.888980     2.887305
 C     1.769293    -1.005588    -2.425274
 H     0.938602    -0.703678    -3.086204
 H     2.587158    -0.277983    -2.557217
 C     2.243083    -2.395783    -2.793154
 H     3.050413    -2.688383    -2.102534
 H     1.411693    -3.100427    -2.631914
 C     2.723634    -2.484890    -4.233299
 H     3.545027    -1.762719    -4.393028
 H     1.910245    -2.164087    -4.908409
 C     3.188022    -3.878909    -4.623074
 H     4.021148    -4.214333    -3.984183
 H     2.374631    -4.613561    -4.509440
 H     3.531402    -3.920275    -5.668118
 C     3.746284     2.025618    -0.223293
 O     4.378347     1.400394     0.786322
 C     5.465300     2.006518     1.421452
 H     5.738277     1.346347     2.254880
 H     6.335818     2.108567     0.748888
 H     5.199973     3.001129     1.818774
 C     1.826679     2.161644    -1.677572
 O     0.646103     1.628063    -2.023024
 C    -0.140221     2.234140    -3.012270
 H    -1.066377     1.650493    -3.060990
 H     0.370830     2.216728    -3.991469
 H    -0.388717     3.274567    -2.749469
 C     2.337376     3.325519    -2.264849
 H     1.786935     3.838451    -3.051934
 C     4.261058     3.192506    -0.804691
 H     5.203712     3.612505    -0.457095
 C     3.555238     3.825197    -1.819974
 H     3.960230     4.735273    -2.269003
 C     2.537334    -1.351081     2.374151
 O     1.324898    -1.052463     2.864751
 C     1.105009    -1.036429     4.247659
 H     0.142693    -0.529647     4.393821
 H     1.046980    -2.056035     4.668463
 H     1.892002    -0.469791     4.772048
 C     4.041644    -1.326547     0.489076
 O     4.243390    -0.939330    -0.783222
 C     5.509577    -1.070251    -1.359497
 H     5.453828    -0.589483    -2.344753
 H     5.794797    -2.128281    -1.495580
 H     6.281978    -0.564027    -0.755290
 C     4.982716    -2.062578     1.213995
 H     5.931176    -2.356761     0.766081
 C     3.479618    -2.082649     3.114500
 H     3.257020    -2.396923     4.133692
 C     4.689497    -2.424068     2.526852
 H     5.420736    -2.999873     3.099655
 C    -2.431336    -1.098263     2.646985
 H    -1.374138    -1.410762     2.635959
 H    -2.503858    -0.193151     3.275754
 C    -3.324167    -2.189518     3.201388
 H    -3.055920    -2.358098     4.259809
 H    -4.364477    -1.817745     3.200658
 C    -3.253080    -3.495606     2.423449
 H    -2.231360    -3.905748     2.499413
 H    -3.407320    -3.267997     1.356238
 C    -4.260913    -4.531098     2.893576
 H    -4.116888    -4.784346     3.956986
 H    -5.293130    -4.159019     2.785758
 H    -4.184518    -5.466028     2.316964
 C    -4.596287     0.705193    -0.481210
 O    -4.733250    -0.630359    -0.543773
 C    -5.977555    -1.216811    -0.300989
 H    -5.802070    -2.297430    -0.218711
 H    -6.419317    -0.852277     0.642156
 H    -6.692800    -1.036346    -1.123793
 C    -3.070274     2.572943    -0.453084
 O    -1.794864     2.990432    -0.462898
 C    -1.485586     4.334470    -0.220133
 H    -0.397004     4.375444    -0.084975
 H    -1.972632     4.700139     0.698954
 H    -1.773066     4.982381    -1.067773
 C    -4.149053     3.457064    -0.607176
 H    -3.976888     4.530319    -0.681152
 C    -5.678276     1.579699    -0.630981
 H    -6.693435     1.196477    -0.733353
 C    -5.440310     2.950578    -0.675418
 H    -6.281855     3.638558    -0.788851
 C    -2.221587    -1.033165    -2.388553
 O    -2.717883     0.172490    -2.748350
 C    -3.688799     0.247499    -3.753776
 H    -4.155242     1.238146    -3.662004
 H    -3.253582     0.149664    -4.764338
 H    -4.462569    -0.526211    -3.617336
 C    -1.155525    -2.396181    -0.718405
 O    -0.680597    -2.470409     0.536616
 C     0.185215    -3.514905     0.883639
 H     0.524263    -3.302586     1.904159
 H     1.060537    -3.539765     0.213929
 H    -0.325222    -4.493667     0.868483
 C    -1.055639    -3.451857    -1.629784
 H    -0.588258    -4.392428    -1.341595
 C    -2.124344    -2.082618    -3.312202
 H    -2.484075    -1.952628    -4.332894
 C    -1.552429    -3.285345    -2.918446
 H    -1.476701    -4.107006    -3.634968
