 102
scf done:    -2313.218694
 C    -1.345598     1.762975    -2.531248
 H    -1.149594     1.647966    -3.608749
 H    -2.421516     1.576041    -2.411939
 C    -1.003421     3.184263    -2.106824
 H    -1.593857     3.938927    -2.661238
 H    -1.195986     3.360557    -1.034677
 H     0.058126     3.421588    -2.286880
Rh    -0.117684     0.543040    -1.321230
 O    -1.853251     0.764826     1.717501
 C    -3.573645     0.515235    -0.389369
 C    -1.793744    -1.662438     0.658768
 O     1.309736    -1.426526     1.111208
 C     3.048774    -0.917345    -0.983964
 C     2.254751     1.213334     1.012139
 P     1.630684    -0.226471     0.006972
 P    -1.849102     0.115626     0.172075
 C     0.616470    -0.022589    -2.909774
 O     0.942242    -0.523562    -3.897767
 C    -1.316216     2.057579     1.954362
 H    -0.467021     2.209125     1.260111
 C    -0.811867     2.078957     3.382756
 H    -0.075744     1.280634     3.545537
 H    -1.646904     1.916561     4.081556
 H    -0.343193     3.045929     3.619638
 C    -2.336973     3.153015     1.696883
 H    -2.712374     3.116416     0.664483
 H    -3.193365     3.059059     2.382137
 H    -1.880031     4.142475     1.850644
 H    -3.452459     1.541126    -0.785532
 C    -4.666155     0.585274     0.678143
 H    -4.332715     1.190334     1.531971
 H    -4.870000    -0.420951     1.075859
 C    -5.948176     1.151969     0.073455
 H    -6.742986     1.189081     0.836593
 H    -5.768675     2.197085    -0.238885
 C    -6.409152     0.337596    -1.131897
 H    -7.309121     0.789304    -1.580235
 H    -6.706822    -0.670457    -0.789457
 C    -5.305849     0.199363    -2.176476
 H    -5.089803     1.188580    -2.619110
 H    -5.640524    -0.444519    -3.006007
 C    -4.024976    -0.357009    -1.562455
 H    -4.217236    -1.380276    -1.196950
 H    -3.226487    -0.436379    -2.317479
 H    -0.838698    -1.665245     1.211232
 C    -1.600344    -2.614156    -0.524441
 H    -0.799608    -2.229320    -1.176383
 H    -2.514592    -2.650025    -1.139452
 C    -1.272987    -4.018497    -0.028707
 H    -1.178727    -4.708135    -0.883424
 H    -0.286367    -3.995215     0.464043
 C    -2.321357    -4.533112     0.953140
 H    -2.037114    -5.527708     1.334818
 H    -3.279481    -4.669761     0.418839
 C    -2.537460    -3.560987     2.108761
 H    -1.617591    -3.505821     2.719385
 H    -3.330964    -3.930707     2.778934
 C    -2.882822    -2.161916     1.604597
 H    -3.849303    -2.207862     1.074010
 H    -3.007420    -1.462394     2.445141
 C     2.016377    -1.858468     2.273412
 H     3.087054    -1.620457     2.167661
 C     1.864656    -3.364529     2.363492
 H     2.221475    -3.851150     1.444541
 H     0.807548    -3.635353     2.501863
 H     2.438133    -3.760980     3.214567
 C     1.469253    -1.163733     3.507082
 H     1.666464    -0.083565     3.484408
 H     0.380747    -1.311756     3.573409
 H     1.934643    -1.571003     4.417194
 H     2.503043    -1.579297    -1.682802
 C     4.090895    -1.789661    -0.283984
 H     3.596640    -2.592156     0.280536
 H     4.669551    -1.189894     0.439092
 C     5.045117    -2.408119    -1.304836
 H     5.806842    -3.013228    -0.786554
 H     4.475874    -3.106205    -1.944600
 C     5.707133    -1.353005    -2.182838
 H     6.353045    -1.832153    -2.936229
 H     6.370706    -0.726647    -1.558643
 C     4.669417    -0.462233    -2.856172
 H     4.072407    -1.056425    -3.570274
 H     5.162375     0.328105    -3.444903
 C     3.729980     0.162478    -1.830643
 H     4.312813     0.828646    -1.171451
 H     2.978952     0.792917    -2.331050
 H     1.487563     1.248703     1.807779
 C     2.112846     2.516563     0.213938
 H     1.122227     2.551583    -0.272728
 H     2.849243     2.531542    -0.606117
 C     2.325092     3.734882     1.104446
 H     2.237667     4.656703     0.507294
 H     1.518646     3.775261     1.859275
 C     3.674738     3.679057     1.810787
 H     3.795166     4.541825     2.485744
 H     4.479492     3.759216     1.057660
 C     3.842312     2.374778     2.581111
 H     3.110987     2.344588     3.409742
 H     4.839839     2.327188     3.047411
 C     3.626571     1.154087     1.687935
 H     4.414707     1.125797     0.916936
 H     3.744706     0.238536     2.284330
