  82
scf done:    -2996.311621
 C    -0.603796    -2.243563    -2.808313
 H    -0.992319    -2.210940    -3.837083
 H     0.490105    -2.171004    -2.889282
 C    -1.010459    -3.548513    -2.140647
 H    -0.609430    -4.423078    -2.685942
 H    -0.635741    -3.621152    -1.107133
 H    -2.105585    -3.673612    -2.110225
Rh    -1.369781    -0.681904    -1.600036
 O     0.651390    -0.623952     1.221133
 O     1.497733    -2.128352    -0.649418
 O     1.526378     0.436450    -0.858825
 O    -3.253621     1.960488    -1.191477
 O    -3.812528     0.201490     0.481586
 O    -1.908478     1.657844     0.944401
 P    -2.512885     0.803798    -0.356756
 P     0.560040    -0.792403    -0.400491
 C    -2.241738    -0.150111    -3.163183
 O    -2.668953     0.227769    -4.155669
 C    -0.241638    -1.354914     2.081880
 H    -1.209383    -1.447119     1.559708
 C    -0.422357    -0.518637     3.326869
 H    -0.879144     0.446152     3.071199
 H     0.550651    -0.337109     3.809041
 H    -1.076317    -1.038598     4.040814
 C     0.292780    -2.745889     2.361447
 H     0.461354    -3.302440     1.428723
 H     1.243251    -2.701635     2.915514
 H    -0.433634    -3.307912     2.966772
 C     2.865876    -2.195717    -0.546971
 C     3.525964    -1.947990     0.657559
 H     2.949361    -1.677555     1.541170
 C     3.586184    -2.528768    -1.692505
 H     3.043265    -2.725510    -2.618746
 C     4.915130    -2.001808     0.706316
 H     5.458302    -1.791209     1.628910
 C     4.976091    -2.592114    -1.644962
 H     5.565794    -2.845910    -2.527582
 C     5.624009    -2.317540    -0.446604
 F     6.954867    -2.360981    -0.401674
 C     2.696744     0.921042    -0.316307
 C     3.826832     0.938285    -1.131145
 H     3.760030     0.527403    -2.139269
 C     2.740586     1.446621     0.973338
 H     1.840516     1.446336     1.585803
 C     5.024357     1.451195    -0.644027
 H     5.928580     1.462782    -1.254739
 C     3.937339     1.964404     1.460717
 H     4.001826     2.387738     2.464554
 C     5.066314     1.953568     0.651377
 F     6.212847     2.442285     1.123945
 C    -4.146811     2.935272    -0.606320
 H    -4.057740     2.866035     0.490439
 C    -5.559216     2.588506    -1.024612
 H    -5.827300     1.584377    -0.668659
 H    -5.648777     2.609625    -2.121298
 H    -6.272071     3.312416    -0.602174
 C    -3.687801     4.300992    -1.066590
 H    -2.656536     4.497394    -0.740410
 H    -3.724509     4.365953    -2.164639
 H    -4.339425     5.082759    -0.649075
 C    -3.709852    -1.015467     1.105154
 C    -3.830436    -1.070308     2.491946
 H    -4.016931    -0.146922     3.042212
 C    -3.470731    -2.177273     0.366787
 H    -3.396223    -2.114037    -0.723367
 C    -3.684616    -2.288548     3.151134
 H    -3.765732    -2.362437     4.237086
 C    -3.305641    -3.393652     1.023577
 H    -3.091799    -4.310278     0.471605
 C    -3.405780    -3.430783     2.409270
 F    -3.219892    -4.587037     3.045655
 C    -0.878628     2.555102     0.872160
 C    -0.476004     3.142209     2.074125
 H    -0.992820     2.867081     2.994923
 C    -0.248485     2.910663    -0.323623
 H    -0.551463     2.456826    -1.268866
 C     0.559625     4.071350     2.088721
 H     0.888639     4.540126     3.017764
 C     0.793251     3.835093    -0.307941
 H     1.313822     4.107860    -1.227161
 C     1.188934     4.403213     0.894885
 F     2.195362     5.276059     0.909275
