  80
scf done:    -1925.161352
 C     3.721174     0.427839    -0.144804
 H     4.469197    -0.091856    -0.763366
 H     3.797748     1.486409    -0.426791
 C     4.065636     0.242350     1.327340
 H     4.050946    -0.820332     1.620537
 H     5.074617     0.625827     1.573991
 H     3.358849     0.766109     1.996169
Rh     1.784135    -0.412110    -0.302342
 O    -0.291654     1.608360     1.412661
 C     1.862735     3.108759     0.382148
 C    -0.400924     2.044095    -1.325506
 O    -1.574131    -1.452938    -0.418175
 C     0.195958    -3.525387    -0.186808
 C    -0.456212    -1.525404     1.996055
 P    -0.039288    -1.714073     0.207674
 P     0.734400     1.644782     0.100646
 C     2.536530    -1.622327    -1.460991
 O     2.949915    -2.290585    -2.305769
 C    -1.255922     2.539138     1.879204
 H    -1.152887     2.549786     2.978200
 H    -1.029805     3.556183     1.530880
 C    -2.689213     2.191758     1.518446
 H    -3.317443     2.972505     1.985300
 H    -2.842833     2.297287     0.431294
 C    -3.168089     0.818096     1.963833
 H    -2.849786     0.637797     3.005937
 H    -2.669869     0.050783     1.352785
 C    -4.675253     0.650660     1.854451
 H    -5.209831     1.363612     2.502880
 H    -5.024107     0.821013     0.823470
 H    -4.987977    -0.363982     2.144112
 H     2.672022     2.631834     0.960486
 C     2.467482     3.576968    -0.940758
 H     3.378696     4.164230    -0.745860
 H     2.748889     2.737718    -1.592124
 H     1.773538     4.223576    -1.497138
 C     1.360981     4.285276     1.209374
 H     1.027338     3.976689     2.209363
 H     2.185933     5.003230     1.349375
 H     0.541188     4.829367     0.716465
 H    -1.202007     1.317977    -1.102657
 C    -1.017830     3.437702    -1.396617
 H    -1.789214     3.455726    -2.184361
 H    -1.502378     3.754055    -0.464885
 H    -0.271312     4.199319    -1.662889
 C     0.210677     1.650267    -2.668417
 H     0.731348     0.682122    -2.594990
 H    -0.579580     1.576620    -3.433488
 H     0.937347     2.397183    -3.019003
 C    -1.716002    -1.489205    -1.827101
 H    -1.029529    -0.759265    -2.292551
 H    -1.432521    -2.485246    -2.212920
 C    -3.155065    -1.202205    -2.197233
 H    -3.278585    -1.411067    -3.274200
 H    -3.798561    -1.924685    -1.665095
 C    -3.612990     0.215239    -1.889944
 H    -3.010681     0.926110    -2.482638
 H    -3.392521     0.432652    -0.833475
 C    -5.089779     0.443860    -2.163849
 H    -5.338038     0.254627    -3.220719
 H    -5.715524    -0.227983    -1.554547
 H    -5.389684     1.477337    -1.932208
 H     0.498595    -3.477989    -1.248680
 C     1.371699    -4.111306     0.588531
 H     1.684704    -5.067253     0.140326
 H     2.242592    -3.437894     0.587083
 H     1.096069    -4.312232     1.634931
 C    -1.046503    -4.403220    -0.089838
 H    -1.927739    -3.935316    -0.550164
 H    -0.864902    -5.363204    -0.599619
 H    -1.302911    -4.630931     0.953480
 H    -0.790313    -0.476219     1.979946
 C    -1.583165    -2.393934     2.533755
 H    -1.930328    -1.996024     3.501440
 H    -2.443499    -2.415519     1.849850
 H    -1.253232    -3.428934     2.709131
 C     0.794865    -1.558583     2.868494
 H     1.594472    -0.929122     2.446647
 H     0.557233    -1.174161     3.873119
 H     1.195735    -2.575454     2.989407
