  88
scf done:    -2305.487849
 C    -1.754699    -1.044188    -2.332527
 H    -2.067247    -2.030035    -2.712992
 H    -2.680036    -0.578784    -1.960908
 C    -1.151073    -0.212576    -3.454466
 H    -0.301067    -0.725298    -3.933941
 H    -1.886408     0.001801    -4.254577
 H    -0.781008     0.762979    -3.095510
Rh    -0.247580    -1.155255    -0.846300
 C    -1.226096     0.539275     2.215787
 C    -1.677509     1.998926    -0.280615
 C    -3.344020    -0.252571     0.470316
 C     2.472099    -2.724235     0.779842
 C     3.093701    -0.492123    -0.940226
 C     2.109939     0.112914     1.641780
 P     1.807786    -1.053082     0.256247
 P    -1.595387     0.301491     0.401452
 C     0.120510    -2.798192    -1.584497
 O     0.232187    -3.883814    -1.960278
 H    -0.203945     0.948725     2.222188
 C    -2.152246     1.499321     2.947815
 H    -1.781996     1.658267     3.973649
 H    -2.212565     2.481878     2.457451
 H    -3.171606     1.091538     3.021666
 C    -1.191190    -0.828351     2.885220
 H    -0.544175    -1.526781     2.335007
 H    -0.810306    -0.736746     3.914281
 H    -2.199085    -1.270564     2.932561
 C    -0.811292     2.997607     0.186797
 H    -0.155530     2.802433     1.036246
 C    -2.497206     2.278335    -1.379470
 H    -3.173900     1.507304    -1.755858
 C    -0.782058     4.242099    -0.434421
 H    -0.110726     5.018572    -0.058916
 C    -2.470146     3.522599    -2.019642
 C    -3.343693     3.770436    -3.214857
 H    -3.033719     3.137471    -4.062158
 H    -4.395353     3.526298    -2.999230
 H    -3.296156     4.818552    -3.541717
 C    -1.602851     4.503798    -1.530420
 H    -1.570277     5.483769    -2.014186
 C    -4.416367     0.624031     0.679146
 H    -4.244140     1.700951     0.735149
 C    -3.588514    -1.625556     0.384260
 H    -2.739339    -2.288438     0.182058
 C    -5.707517     0.117289     0.798553
 H    -6.546895     0.799962     0.952739
 C    -4.879907    -2.149047     0.512463
 C    -5.108118    -3.629782     0.417493
 H    -6.179257    -3.875671     0.422724
 H    -4.667010    -4.039608    -0.504213
 H    -4.636899    -4.158408     1.261709
 C    -5.935988    -1.256119     0.719700
 H    -6.955191    -1.642086     0.811120
 H     2.519040    -3.209694    -0.211663
 C     3.871436    -2.747090     1.377824
 H     4.170963    -3.787903     1.581931
 H     4.614186    -2.318232     0.691284
 H     3.928981    -2.194788     2.327714
 C     1.455663    -3.505725     1.608255
 H     0.450177    -3.440113     1.166334
 H     1.745062    -4.567470     1.652735
 H     1.391847    -3.143549     2.645394
 C     2.818275    -0.560366    -2.309048
 H     1.836786    -0.912822    -2.637237
 C     4.341094    -0.006818    -0.521509
 H     4.555314     0.080438     0.546887
 C     3.782098    -0.162012    -3.234979
 H     3.558261    -0.211190    -4.303339
 C     5.316193     0.394484    -1.437280
 C     6.653765     0.894387    -0.972723
 H     6.653431     1.098989     0.107178
 H     7.444847     0.152606    -1.171227
 H     6.940638     1.819577    -1.495630
 C     5.017883     0.308335    -2.804244
 H     5.764977     0.624858    -3.537940
 C     2.112882    -0.266907     2.986870
 H     2.033413    -1.316866     3.267251
 C     2.198411     1.479303     1.329474
 H     2.190830     1.787551     0.279876
 C     2.190744     0.702059     3.988119
 H     2.186774     0.395233     5.036932
 C     2.279959     2.459453     2.319406
 C     2.365462     3.914907     1.960603
 H     2.348615     4.060721     0.871635
 H     1.525134     4.481532     2.393171
 H     3.291879     4.367110     2.348633
 C     2.268116     2.051267     3.661407
 H     2.323883     2.801811     4.454758
