  84
scf done:    -2377.296713
 C     0.224274    -0.608962    -3.291574
 H     0.134208     0.102025    -4.128062
 H     1.308437    -0.775263    -3.177177
 C    -0.482697    -1.915327    -3.622386
 H    -0.059955    -2.402985    -4.521810
 H    -0.406126    -2.647655    -2.800852
 H    -1.556561    -1.760051    -3.816811
Rh    -0.718658     0.110353    -1.524590
 O     1.189518    -0.066707     1.144721
 C     1.544185    -2.322666    -0.323813
 C     2.733476     0.180213    -1.098562
 O    -1.619608     1.769363     1.361594
 C    -3.729204     0.522043     0.210126
 C    -1.773071    -0.847811     1.660416
 P    -1.903452     0.458148     0.391281
 P     1.183124    -0.536610    -0.438893
 C    -1.743186     1.215044    -2.614748
 O    -2.249270     2.016495    -3.267144
 C     2.289798    -0.212604     2.025030
 H     1.881180    -0.594088     2.976613
 H     2.992252    -0.978711     1.653568
 C     2.999082     1.107619     2.238435
 H     3.301016     1.510443     1.258099
 H     2.279678     1.829190     2.660662
 C     4.217986     0.989601     3.140076
 H     4.922535     0.259867     2.702525
 H     3.918890     0.569725     4.117177
 C     4.926681     2.318519     3.346642
 H     5.263122     2.739410     2.385705
 H     4.256686     3.059504     3.811420
 H     5.809698     2.213876     3.994933
 C     2.131730    -3.022880    -1.386490
 C     1.098479    -3.029651     0.800178
 C     1.836693    -5.104171    -0.193793
 C     1.249323    -4.412564     0.864657
 C     2.275656    -4.406733    -1.319150
 H     2.479885    -2.484399    -2.270825
 H     2.734872    -4.943471    -2.152651
 H     1.952308    -6.189539    -0.143347
 H     0.898002    -4.950510     1.748451
 H     0.624461    -2.494406     1.625340
 C     3.997766    -0.362147    -0.834141
 C     2.638603     1.383359    -1.807886
 C     5.045738     1.520280    -1.926937
 C     3.789286     2.052582    -2.216527
 C     5.148512     0.308809    -1.243501
 H     4.086521    -1.317898    -0.312160
 H     6.131083    -0.119145    -1.030789
 H     5.949360     2.044992    -2.246762
 H     3.704310     2.991503    -2.768591
 H     1.643449     1.774516    -2.039182
 C    -1.748492     3.067057     0.794099
 H    -1.894720     2.993497    -0.299106
 H    -2.656224     3.532437     1.214332
 C    -0.522872     3.900467     1.094942
 H    -0.750622     4.949435     0.834517
 H    -0.346258     3.882924     2.185108
 C     0.719150     3.433129     0.352212
 H     0.514135     3.466794    -0.731778
 H     0.889735     2.371013     0.587495
 C     1.960634     4.248263     0.669024
 H     1.825885     5.310147     0.405695
 H     2.206081     4.205832     1.742685
 H     2.836379     3.874915     0.116242
 C    -4.343566     0.004144    -0.932475
 C    -4.517423     1.050989     1.239969
 C    -6.513445     0.548175    -0.023488
 C    -5.903518     1.070268     1.118994
 C    -5.733776     0.011344    -1.045778
 H    -3.722526    -0.401198    -1.736724
 H    -6.208100    -0.396469    -1.941585
 H    -7.602196     0.562427    -0.116090
 H    -6.514688     1.490496     1.921607
 H    -4.032093     1.445305     2.136699
 C    -1.221387    -0.609165     2.921926
 C    -2.206980    -2.135176     1.324961
 C    -1.541832    -2.936937     3.502714
 C    -2.096862    -3.174620     2.245097
 C    -1.104579    -1.654581     3.837241
 H    -0.882908     0.397600     3.170580
 H    -0.672868    -1.465044     4.823410
 H    -1.452096    -3.751946     4.225102
 H    -2.439447    -4.176265     1.975358
 H    -2.632346    -2.326477     0.335392
