  66
scf done:    -2538.357796
 C     1.516218    -2.565360     1.824366
 H     1.829014    -3.460714     1.261203
 H     2.455551    -2.036547     2.053727
 C     0.826109    -2.984727     3.115627
 H    -0.040530    -3.638031     2.926260
 H     1.507498    -3.537080     3.789907
 H     0.444480    -2.123455     3.690165
Rh     0.178187    -1.380276     0.668548
 O     2.172170     1.143643     1.900865
 C     3.446539    -0.428767     0.073270
 C     1.637670     1.619289    -0.600316
 O    -1.025456     0.576557    -1.760500
 C    -2.980429    -0.997386    -0.769848
 C    -2.097179     1.261402     0.706681
 P    -1.444214    -0.112537    -0.317293
 P     1.813657     0.224223     0.560574
 C    -0.650813    -2.993946     0.219995
 O    -1.072735    -3.988393    -0.166184
 C     2.205592     0.533348     3.171639
 H     1.299357    -0.068160     3.355685
 H     3.085239    -0.122558     3.283200
 H     2.266590     1.337841     3.917793
 C     4.604924     0.314249     0.330701
 H     4.525776     1.268784     0.857023
 C     3.541478    -1.649807    -0.600474
 H     2.629687    -2.228328    -0.777000
 C     5.847632    -0.158007    -0.076492
 H     6.767022     0.397711     0.116740
 C     4.778685    -2.124879    -1.027349
 H     4.878665    -3.074503    -1.555841
 C     5.914463    -1.371589    -0.755039
 F     7.101166    -1.823052    -1.150897
 C     1.191757     2.870996    -0.166784
 H     1.024172     3.046295     0.896310
 C     1.873536     1.409764    -1.963510
 H     2.220260     0.434762    -2.314045
 C     0.975609     3.900736    -1.080283
 H     0.630954     4.885903    -0.760869
 C     1.667675     2.430490    -2.883774
 H     1.851326     2.287174    -3.950034
 C     1.214318     3.663673    -2.427608
 F     1.003251     4.641398    -3.307243
 C    -1.773906     1.579141    -2.404306
 H    -2.812349     1.258718    -2.600104
 H    -1.787813     2.509814    -1.814310
 H    -1.279368     1.784059    -3.363896
 C    -3.951003    -1.297040     0.194447
 H    -3.848197    -0.910823     1.211960
 C    -3.120694    -1.519917    -2.060713
 H    -2.353725    -1.312977    -2.810974
 C    -5.050429    -2.087372    -0.124844
 H    -5.816188    -2.330220     0.613956
 C    -4.218954    -2.307569    -2.394512
 H    -4.345229    -2.720518    -3.396875
 C    -5.170826    -2.580028    -1.419718
 F    -6.222458    -3.332334    -1.731237
 C    -3.307724     1.915271     0.431869
 H    -3.928020     1.588050    -0.405531
 C    -1.347645     1.675414     1.814495
 H    -0.411273     1.161429     2.045108
 C    -3.746792     2.969192     1.225905
 H    -4.685393     3.488412     1.024155
 C    -1.774827     2.724443     2.622835
 H    -1.199892     3.052697     3.490492
 C    -2.969673     3.361793     2.311372
 F    -3.387226     4.366003     3.074122
