  90
scf done:    -2304.553353
 C    -1.929943     1.030231    -2.588521
 H    -2.812172     0.598863    -3.085873
 H    -2.226061     2.032766    -2.249822
 C    -0.764891     1.151576    -3.558565
 H    -0.462014     0.174986    -3.970281
 H    -1.017441     1.798163    -4.420473
 H     0.117613     1.602055    -3.075061
Rh    -1.111395    -0.230509    -1.084758
 O    -0.156792     1.729783     1.603685
 O    -0.256515     2.862837    -0.587657
 O    -2.359861     2.265229     0.772862
 O     0.003151    -2.431439     1.359235
 O     1.041894    -2.719556    -0.858284
 O     1.633448    -0.736478     0.624983
 P     0.343974    -1.529530     0.039339
 P    -0.962329     1.633354     0.193298
 C    -2.156353    -1.611017    -1.776424
 O    -2.945905    -2.401283    -2.055703
 C    -0.320873     0.836953     2.709063
 H    -0.456848    -0.185563     2.317485
 C    -1.523768     1.220290     3.550166
 H    -2.454120     1.159949     2.972717
 H    -1.418324     2.252655     3.917048
 H    -1.601554     0.547614     4.417846
 C     0.970352     0.894935     3.495596
 H     1.818858     0.666492     2.840051
 H     1.115323     1.901414     3.918047
 H     0.952046     0.169556     4.322170
 C     0.250838     4.041431     0.031422
 H     0.097304     4.849030    -0.702325
 H    -0.338065     4.278917     0.931790
 C     1.722435     3.893993     0.369584
 H     2.079648     4.867526     0.750669
 H     1.819908     3.173025     1.196531
 C     2.581998     3.442758    -0.803235
 H     2.476576     4.159527    -1.637225
 H     2.187151     2.483775    -1.177862
 C     4.048977     3.285921    -0.437628
 H     4.482072     4.235083    -0.082268
 H     4.179047     2.543397     0.365868
 H     4.647711     2.949453    -1.297942
 C    -3.564252     2.513701     0.062669
 H    -4.118681     3.225299     0.696382
 H    -3.345053     3.026711    -0.887961
 C    -4.398121     1.271672    -0.181344
 H    -5.317496     1.589402    -0.704625
 H    -3.853515     0.609291    -0.872373
 C    -4.754815     0.495985     1.076597
 H    -5.312467     1.146175     1.774368
 H    -3.822403     0.223912     1.597073
 C    -5.552464    -0.763551     0.781199
 H    -6.509342    -0.527656     0.288177
 H    -4.993905    -1.433747     0.108359
 H    -5.780268    -1.325604     1.699818
 C    -1.135771    -3.304360     1.331097
 H    -1.329728    -3.594896     0.282400
 C    -2.345493    -2.571972     1.874298
 H    -2.537404    -1.668601     1.276094
 H    -2.176851    -2.271648     2.920169
 H    -3.240627    -3.210129     1.832758
 C    -0.761315    -4.542136     2.115257
 H     0.121505    -5.021801     1.669528
 H    -0.523582    -4.274973     3.156476
 H    -1.591593    -5.263698     2.120851
 C     1.118859    -2.641068    -2.277290
 H     1.541279    -3.606720    -2.596379
 H     0.102325    -2.561744    -2.697005
 C     1.969096    -1.487312    -2.772011
 H     1.862431    -1.432576    -3.869517
 H     1.535203    -0.545537    -2.388517
 C     3.439498    -1.577355    -2.394253
 H     3.894630    -2.444907    -2.903895
 H     3.518923    -1.789168    -1.316899
 C     4.213758    -0.311975    -2.723521
 H     4.173672    -0.083625    -3.800700
 H     3.793619     0.555690    -2.189583
 H     5.274075    -0.397355    -2.440262
 C     2.712351    -1.403838     1.272104
 H     2.415695    -1.648157     2.305693
 H     2.922741    -2.355800     0.756042
 C     3.920194    -0.495799     1.245223
 H     4.130483    -0.220442     0.198831
 H     3.671637     0.447801     1.760264
 C     5.153137    -1.123986     1.876171
 H     5.385496    -2.070796     1.357102
 H     4.930949    -1.402189     2.921615
 C     6.365808    -0.208181     1.835546
 H     6.627679     0.057963     0.798890
 H     6.172871     0.732636     2.375529
 H     7.248314    -0.680351     2.292609
