 102
scf done:    -2613.017594
 C     0.947250    -1.474926     3.125980
 H     1.402541    -2.479645     3.179734
 H     1.787510    -0.762266     3.125206
 C     0.089478    -1.235738     4.361991
 H    -0.677701    -2.015426     4.492016
 H     0.695034    -1.217955     5.287510
 H    -0.448073    -0.273819     4.318610
Rh    -0.186838    -1.290693     1.330003
 O     2.569752     0.837957     1.340194
 C     2.995637    -1.645077     0.585117
 C     1.845696     0.321987    -1.296207
 O    -1.673810    -1.804884    -1.772721
 C    -3.441379    -1.382649     0.295971
 C    -2.019807     0.671398    -1.101279
 P    -1.742122    -0.967857    -0.335053
 P     1.730463    -0.297147     0.481432
 C    -1.039951    -2.823413     1.920405
 O    -1.426332    -3.871233     2.202719
 C     2.002244     2.103239     1.693625
 H     1.255157     2.386670     0.931477
 C     3.132642     3.109581     1.673571
 H     3.615295     3.132968     0.687773
 H     3.888000     2.840084     2.428093
 H     2.754931     4.116461     1.905563
 C     1.312913     2.018446     3.040105
 H     0.512302     1.266582     3.027131
 H     2.032267     1.736239     3.823708
 H     0.873149     2.992303     3.302164
 H     3.012567    -1.874111     1.660714
 H     2.530263    -2.512879     0.099873
 C     4.378648    -1.376250     0.077088
 C     5.220918    -0.528782     0.808998
 H     4.838453    -0.082125     1.727829
 C     4.854354    -1.959563    -1.116302
 C     4.018702    -2.914372    -1.921627
 H     3.087530    -2.454207    -2.287209
 H     3.723514    -3.795578    -1.329419
 H     4.573333    -3.274011    -2.798840
 C     6.502845    -0.225011     0.364530
 H     7.136357     0.448694     0.946070
 C     6.148868    -1.643510    -1.547620
 H     6.519317    -2.090799    -2.474054
 C     6.968447    -0.779686    -0.825902
 H     7.972435    -0.548671    -1.189812
 H     2.283726    -0.519561    -1.854303
 H     0.811962     0.416372    -1.651022
 C     2.642303     1.572006    -1.564360
 C     4.034671     1.484596    -1.681934
 H     4.514291     0.511045    -1.590022
 C     2.028949     2.834651    -1.718801
 C     0.540378     3.017016    -1.673081
 H     0.084828     2.605168    -0.760418
 H     0.049948     2.528056    -2.531221
 H     0.274749     4.082109    -1.711746
 C     4.823168     2.606821    -1.912418
 H     5.907083     2.496139    -1.989824
 C     2.837123     3.954533    -1.950368
 H     2.357264     4.930435    -2.064285
 C     4.222163     3.855669    -2.040732
 H     4.825217     4.749353    -2.217793
 C    -1.255816    -3.172775    -1.772679
 H    -1.554524    -3.644312    -0.817250
 C     0.251541    -3.248431    -1.894323
 H     0.707169    -2.741871    -1.030790
 H     0.583477    -2.754992    -2.821009
 H     0.596573    -4.293119    -1.905408
 C    -1.982619    -3.861975    -2.908476
 H    -3.071735    -3.825407    -2.761185
 H    -1.746202    -3.368359    -3.863547
 H    -1.680147    -4.917295    -2.976809
 H    -3.461346    -2.486224     0.313205
 H    -3.431822    -1.071062     1.348896
 C    -4.621417    -0.826982    -0.445897
 C    -4.841913    -1.201612    -1.778667
 H    -4.135866    -1.885602    -2.252838
 C    -5.513054     0.078015     0.169597
 C    -5.342243     0.515350     1.595652
 H    -4.384649     1.035685     1.749871
 H    -5.367104    -0.340404     2.289310
 H    -6.144881     1.205066     1.889276
 C    -5.918092    -0.702402    -2.506730
 H    -6.065226    -1.011005    -3.544402
 C    -6.591841     0.566565    -0.577723
 H    -7.285073     1.264667    -0.100637
 C    -6.801372     0.188052    -1.901076
 H    -7.653348     0.588004    -2.456018
 H    -1.096328     0.928772    -1.640835
 H    -2.790238     0.518238    -1.868396
 C    -2.409936     1.757085    -0.137007
 C    -1.870934     1.797018     1.154673
 H    -1.174992     1.005025     1.465468
 C    -3.317039     2.762516    -0.533704
 C    -3.917456     2.770235    -1.908492
 H    -4.520684     1.865727    -2.087470
 H    -3.141525     2.806953    -2.689815
 H    -4.574041     3.640217    -2.044998
 C    -2.215008     2.800538     2.057602
 H    -1.783465     2.799766     3.060790
 C    -3.654941     3.760799     0.385966
 H    -4.361890     4.537350     0.081379
 C    -3.115480     3.788292     1.670530
 H    -3.401483     4.580579     2.366390
