 100
scf done:    -2835.237526
 C     2.211095    -3.028893     0.927243
 H     2.504248    -3.947394     0.405405
 H     3.111615    -2.441120     1.136879
 C     1.325819    -3.258677     2.133036
 H     1.152956    -4.321486     2.358043
 H     1.688993    -2.752617     3.039912
 H     0.282788    -2.838786     1.982590
Rh     0.628821    -2.002991     0.041021
 O     1.133769     0.899600     1.666969
 O     3.239670     0.089091     0.712986
 O     1.445367     0.920622    -0.912633
 O    -2.172382    -1.476620    -1.754494
 O    -2.609251    -1.544541     0.665654
 O    -1.482484     0.527513    -0.308397
 P    -1.391388    -1.127614    -0.390184
 P     1.603271    -0.030157     0.429062
 C     0.685137    -3.150114    -1.442404
 O     0.824542    -3.716611    -2.432551
 C     1.776540     1.970123     2.361500
 H     1.753281     1.681688     3.425043
 H     2.829647     2.038541     2.052767
 C     1.047982     3.283931     2.155246
 H     1.443270     3.997720     2.899825
 H     1.301848     3.699608     1.168673
 C    -0.465130     3.171378     2.277456
 H    -0.731072     2.770786     3.272713
 H    -0.814234     2.424836     1.547354
 C    -1.183229     4.488094     2.037618
 H    -0.891752     5.253344     2.775347
 H    -0.945416     4.884870     1.037895
 H    -2.275944     4.365357     2.092953
 C     4.212313    -0.493766    -0.053076
 C     3.986067    -0.932382    -1.356601
 H     2.999512    -0.814866    -1.807608
 C     5.472024    -0.629384     0.535004
 H     5.618800    -0.278014     1.557808
 C     5.014050    -1.544497    -2.084040
 C     4.739972    -2.034940    -3.476016
 H     3.854981    -2.689965    -3.494997
 H     4.532553    -1.194261    -4.157615
 H     5.592800    -2.596262    -3.882169
 C     6.497176    -1.220536    -0.193796
 H     7.484877    -1.332766     0.259960
 C     6.271739    -1.682602    -1.491169
 H     7.082044    -2.157991    -2.049435
 C     1.692456     2.261488    -1.032015
 C     2.983125     2.774203    -0.911962
 H     3.813273     2.095232    -0.711068
 C     0.614557     3.099484    -1.318452
 H    -0.382512     2.668806    -1.399892
 C     3.212968     4.148253    -1.051283
 C     4.607846     4.691901    -0.938299
 H     5.165847     4.202099    -0.126604
 H     5.172433     4.517696    -1.869193
 H     4.604868     5.774796    -0.750361
 C     0.842765     4.463398    -1.468614
 H     0.003406     5.128044    -1.687256
 C     2.127480     4.987372    -1.326484
 H     2.292596     6.062375    -1.434669
 C    -3.590013    -1.564699    -1.920936
 H    -3.923364    -2.547528    -1.549497
 H    -4.095889    -0.794818    -1.318394
 C    -3.914622    -1.394534    -3.385147
 H    -3.496975    -0.432802    -3.726443
 H    -3.399882    -2.181082    -3.962322
 C    -5.412589    -1.430038    -3.651579
 H    -5.902752    -0.637017    -3.059333
 H    -5.829863    -2.383550    -3.282007
 C    -5.759510    -1.257172    -5.121353
 H    -5.385740    -0.295390    -5.507743
 H    -5.309480    -2.054092    -5.734555
 H    -6.847059    -1.282773    -5.286993
 C    -2.400760    -1.710331     2.008129
 C    -1.531866    -0.888866     2.725100
 H    -0.986084    -0.087859     2.221564
 C    -3.092642    -2.743573     2.641880
 H    -3.762169    -3.372071     2.052596
 C    -1.320395    -1.108987     4.092622
 C    -0.336697    -0.253537     4.835689
 H    -0.311406    -0.501300     5.905720
 H     0.677352    -0.388500     4.426752
 H    -0.580993     0.815282     4.735365
 C    -2.900156    -2.946843     4.003507
 H    -3.437180    -3.752997     4.509081
 C    -2.016645    -2.142035     4.724621
 H    -1.862870    -2.322376     5.791461
 C    -2.617212     1.261473    -0.539701
 C    -3.477993     1.550475     0.516093
 H    -3.246345     1.157737     1.508537
 C    -2.867870     1.743822    -1.824683
 H    -2.175098     1.498325    -2.631367
 C    -4.620870     2.328737     0.303391
 C    -5.527575     2.663914     1.451561
 H    -5.699147     1.788623     2.095539
 H    -5.081792     3.449230     2.084480
 H    -6.502357     3.032377     1.102862
 C    -4.008144     2.512488    -2.040948
 H    -4.221975     2.891368    -3.043291
 C    -4.877824     2.800090    -0.989581
 H    -5.769845     3.404400    -1.173040
