  88
scf done:    -2702.254615
 C     0.213447    -0.686440     3.198130
 H     0.122117    -1.657842     3.712274
 H     1.238108    -0.348951     3.433647
 C    -0.796054     0.286682     3.795162
 H    -1.831500    -0.045445     3.616991
 H    -0.675642     0.401002     4.888911
 H    -0.709100     1.297760     3.361296
Rh    -0.173702    -0.850615     1.107084
 C     1.874388     1.985747     1.906264
 C     3.223942    -0.558548     1.434765
 C     2.309082     0.940419    -0.868904
 C     0.164630    -1.486506    -2.427936
 C    -2.461453    -2.012426    -1.363499
 C    -1.574302     0.740121    -1.720845
 P    -0.982863    -0.899313    -1.077789
 P     1.772016     0.447904     0.853927
 C    -1.042456    -2.400168     1.573104
 O    -1.447761    -3.440709     1.861489
 H     1.443156     1.616499     2.851659
 C     3.264022     2.534053     2.213041
 H     3.173334     3.362057     2.934816
 H     3.922615     1.780890     2.668325
 H     3.764305     2.930582     1.319100
 C     0.940673     3.065231     1.368949
 H    -0.053627     2.670684     1.117087
 H     0.802146     3.853819     2.125208
 H     1.356020     3.546484     0.472550
 H     4.152409    -0.011087     1.219904
 H     3.123494    -0.606532     2.529432
 C     3.253765    -1.943343     0.856483
 C     2.493462    -2.967776     1.439786
 H     1.890661    -2.747530     2.321920
 C     4.013700    -2.251721    -0.276978
 H     4.629801    -1.482084    -0.747876
 C     2.492055    -4.255085     0.913059
 H     1.899876    -5.053304     1.363846
 C     4.022766    -3.535998    -0.820744
 H     4.618934    -3.781169    -1.701324
 C     3.256734    -4.522660    -0.216565
 F     3.254952    -5.752383    -0.730585
 H     2.552750    -0.024783    -1.341328
 H     1.398458     1.306227    -1.364205
 C     3.421482     1.926051    -1.069343
 C     3.135162     3.248490    -1.434906
 H     2.097216     3.545048    -1.605064
 C     4.769309     1.573408    -0.915502
 H     5.038220     0.544739    -0.672230
 C     4.140050     4.198546    -1.591626
 H     3.914599     5.228907    -1.872133
 C     5.789661     2.507893    -1.066706
 H     6.838564     2.233498    -0.941844
 C     5.460909     3.817803    -1.392143
 F     6.429946     4.718645    -1.534765
 H     1.038818    -0.827321    -2.318172
 C     0.607053    -2.906143    -2.090662
 H     1.415579    -3.231497    -2.763524
 H     0.977000    -2.967934    -1.056684
 H    -0.220721    -3.625156    -2.199526
 C    -0.349450    -1.354408    -3.854962
 H    -0.573974    -0.312980    -4.128030
 H     0.413091    -1.720378    -4.561190
 H    -1.256512    -1.954378    -4.029491
 H    -2.416719    -2.381634    -2.397988
 H    -2.328881    -2.881014    -0.702429
 C    -3.784511    -1.348002    -1.130595
 C    -4.225745    -1.032248     0.161335
 H    -3.611909    -1.308547     1.021759
 C    -4.586480    -0.975925    -2.214592
 H    -4.266610    -1.224647    -3.230419
 C    -5.414955    -0.341953     0.365385
 H    -5.754821    -0.072920     1.366725
 C    -5.783639    -0.288454    -2.028670
 H    -6.411943     0.010371    -2.869596
 C    -6.173897     0.033163    -0.736499
 F    -7.299824     0.721326    -0.548636
 H    -0.653604     1.317783    -1.920871
 H    -2.065233     0.594348    -2.695080
 C    -2.487021     1.526783    -0.812057
 C    -3.552384     2.252538    -1.357268
 H    -3.733348     2.215076    -2.434394
 C    -2.302889     1.580996     0.574601
 H    -1.510539     0.970030     1.036102
 C    -4.402424     3.010932    -0.555974
 H    -5.243908     3.563262    -0.977522
 C    -3.137550     2.334584     1.392771
 H    -2.995666     2.362826     2.474640
 C    -4.181593     3.044326     0.814285
 F    -4.994249     3.762405     1.589662
