  98
scf done:    -3057.130894
 C     1.207960    -2.759964    -1.416345
 H     0.964155    -3.305020    -2.343467
 H     2.267829    -2.483978    -1.497909
 C     0.971162    -3.660089    -0.212978
 H     1.607112    -4.566881    -0.232890
 H     1.181312    -3.141488     0.736434
 H    -0.074676    -4.004828    -0.158174
Rh    -0.086431    -1.139518    -1.098858
 O     0.971465     0.258081     1.782146
 C     3.056185    -1.026810     0.461173
 C     2.119073     1.577256    -0.297498
 O    -2.459721     1.020149    -1.898170
 C    -3.532935    -0.798477    -0.179492
 C    -1.871942     1.265514     0.853728
 P    -1.978418     0.135801    -0.594412
 P     1.473569    -0.089114     0.241453
 C    -0.554738    -1.281275    -2.876939
 O    -0.698627    -1.211144    -4.022036
 C     1.626613     1.018996     2.759804
 H     0.965647     1.039125     3.638052
 H     2.593145     0.577995     3.041370
 H     1.781383     2.058433     2.427085
 C     3.967185    -1.042652    -0.611928
 O     3.610373    -0.305492    -1.680263
 C     4.367525    -0.350282    -2.852782
 H     3.839058     0.274007    -3.584180
 H     5.383209     0.056901    -2.702312
 H     4.444812    -1.378156    -3.247409
 C     3.337225    -1.847050     1.565102
 O     2.410087    -1.897647     2.550355
 C     2.586342    -2.785462     3.613409
 H     1.695120    -2.691875     4.247991
 H     3.477345    -2.539110     4.218303
 H     2.668745    -3.830432     3.266479
 C     4.525040    -2.590968     1.628845
 H     4.744286    -3.215295     2.493741
 C     5.152857    -1.782836    -0.561955
 H     5.849906    -1.778130    -1.399042
 C     5.422851    -2.543920     0.569595
 H     6.344799    -3.128134     0.619896
 C     3.306223     2.129539     0.236910
 O     3.948977     1.403411     1.170641
 C     5.252227     1.724925     1.553784
 H     5.596143     0.899302     2.190885
 H     5.924560     1.805993     0.682447
 H     5.297241     2.666461     2.129837
 C     1.478776     2.313466    -1.319687
 O     0.396038     1.778033    -1.885797
 C    -0.073927     2.274691    -3.108522
 H    -0.827126     1.560771    -3.454383
 H     0.743688     2.351020    -3.845285
 H    -0.553180     3.261403    -2.990788
 C     1.977610     3.557610    -1.743805
 H     1.461420     4.114345    -2.524131
 C     3.808595     3.365834    -0.187023
 H     4.718454     3.773540     0.251241
 C     3.130329     4.072301    -1.171426
 H     3.512830     5.041136    -1.502444
 C    -3.692795     1.664613    -2.083489
 H    -4.535459     0.959290    -1.993795
 H    -3.830444     2.487703    -1.368690
 H    -3.684701     2.070077    -3.106603
 C    -4.633404    -0.197197     0.465685
 O    -4.555813     1.128693     0.687123
 C    -5.409293     1.744149     1.607255
 H    -5.022770     2.761781     1.751325
 H    -6.448015     1.803118     1.236548
 H    -5.402107     1.220796     2.578378
 C    -3.619998    -2.179476    -0.455138
 O    -2.560821    -2.739257    -1.053901
 C    -2.599691    -4.066261    -1.490766
 H    -1.651901    -4.236891    -2.017148
 H    -3.438560    -4.240871    -2.186564
 H    -2.675654    -4.775413    -0.647950
 C    -4.752687    -2.925252    -0.099211
 H    -4.804585    -3.990825    -0.318090
 C    -5.760355    -0.939378     0.842007
 H    -6.600615    -0.457454     1.340488
 C    -5.806048    -2.296728     0.551773
 H    -6.686544    -2.878479     0.835681
 C    -1.737147     2.660620     0.833544
 O    -1.780564     3.273629    -0.369601
 C    -1.476738     4.635016    -0.450964
 H    -1.516363     4.901005    -1.515475
 H    -2.208047     5.259395     0.093133
 H    -0.463329     4.849322    -0.069282
 C    -1.778572     0.606294     2.091389
 O    -1.839379    -0.738077     2.022454
 C    -1.316726    -1.518027     3.062107
 H    -1.344828    -2.556409     2.707152
 H    -1.925179    -1.441083     3.980379
 H    -0.271236    -1.237328     3.263673
 C    -1.653545     1.309623     3.291577
 H    -1.610662     0.781732     4.244147
 C    -1.575143     3.375427     2.030963
 H    -1.471622     4.459513     2.020046
 C    -1.555611     2.695790     3.244320
 H    -1.443501     3.261536     4.172546
