  90
scf done:    -2455.874690
 C    -0.137330    -2.421593    -2.090881
 H    -0.337183    -3.504497    -2.031874
 H    -1.089668    -1.960371    -2.401305
 C     0.928048    -2.142474    -3.141409
 H     1.882280    -2.638336    -2.900507
 H     0.621593    -2.492531    -4.145429
 H     1.144618    -1.065829    -3.230571
Rh     0.561769    -1.643340    -0.240283
 O    -2.232323     0.039964    -1.265418
 C    -2.684887    -2.249503     0.072433
 C    -2.154022     0.158783     1.466919
 O     0.748870    -0.603987     2.949813
 C     3.258800    -1.206311     2.043159
 C     1.878754     1.210044     1.213619
 P     1.577905    -0.596652     1.503538
 P    -1.543410    -0.790943    -0.005048
 C     1.450069    -3.252010    -0.057602
 O     1.817912    -4.324422     0.158855
 C    -1.417802     0.714761    -2.199435
 H    -0.348067     0.513397    -2.025787
 H    -1.681712     0.382638    -3.215294
 H    -1.581130     1.800195    -2.116733
 H    -2.448536    -2.831073    -0.830261
 H    -2.330944    -2.840442     0.931451
 C    -4.148156    -1.947810     0.174492
 C    -4.832152    -2.107066     1.386209
 H    -4.297236    -2.485416     2.261775
 C    -4.855225    -1.468884    -0.934594
 H    -4.320398    -1.329189    -1.876702
 C    -6.184716    -1.788064     1.479260
 H    -6.709406    -1.914857     2.429485
 C    -6.212824    -1.145265    -0.858779
 C    -6.948934    -0.659791    -2.074369
 H    -6.305718    -0.032703    -2.709140
 H    -7.289774    -1.506877    -2.693022
 H    -7.838731    -0.074358    -1.801382
 C    -6.870168    -1.307637     0.366482
 H    -7.931127    -1.055218     0.447044
 H    -3.231487    -0.059739     1.543021
 H    -1.647804    -0.303070     2.328303
 C    -1.958305     1.645481     1.468822
 C    -1.208200     2.272552     2.470147
 H    -0.741663     1.662920     3.245977
 C    -2.590360     2.450159     0.511017
 H    -3.198663     1.964925    -0.255668
 C    -1.076291     3.660095     2.493467
 H    -0.486986     4.137065     3.280856
 C    -2.470918     3.842308     0.520158
 C    -3.199855     4.676878    -0.493092
 H    -3.368082     4.121179    -1.426824
 H    -4.189191     4.979326    -0.111032
 H    -2.648284     5.597211    -0.734192
 C    -1.694073     4.441172     1.520387
 H    -1.586207     5.529164     1.543632
 C     1.245735    -0.041191     4.137646
 H     2.016503    -0.677595     4.603996
 H     1.667513     0.968082     3.983651
 H     0.404655     0.043454     4.841411
 H     3.542199    -0.680947     2.967982
 H     3.129145    -2.272992     2.282229
 C     4.307238    -0.999615     0.991321
 C     4.511413    -1.939784    -0.026706
 H     3.964911    -2.882668    -0.014668
 C     5.059316     0.181352     0.965859
 H     4.939596     0.908365     1.775191
 C     5.413722    -1.675189    -1.053812
 H     5.563810    -2.415981    -1.842753
 C     5.958499     0.469578    -0.064840
 C     6.689717     1.779479    -0.097861
 H     6.899930     2.151975     0.915403
 H     7.643324     1.697920    -0.638869
 H     6.084064     2.545816    -0.610235
 C     6.122023    -0.476354    -1.082399
 H     6.820193    -0.274316    -1.899188
 H     1.094967     1.727577     1.784647
 H     2.849588     1.512287     1.637355
 C     1.785540     1.630114    -0.228630
 C     2.461082     0.945240    -1.247290
 H     3.059556     0.060924    -1.020492
 C     1.027820     2.757425    -0.563858
 H     0.479827     3.282671     0.223122
 C     2.386507     1.403293    -2.561657
 H     2.924179     0.866560    -3.346734
 C     0.946318     3.228555    -1.877700
 C     0.104130     4.425943    -2.209019
 H    -0.023880     5.080097    -1.335088
 H     0.544571     5.016722    -3.025667
 H    -0.904813     4.121293    -2.534763
 C     1.641394     2.536908    -2.876206
 H     1.595507     2.889541    -3.910503
