 100
scf done:    -2835.084295
 C    -1.323091    -3.161849    -1.510739
 H    -0.969049    -4.203135    -1.458391
 H    -2.291587    -3.150087    -0.989167
 C    -1.489585    -2.746047    -2.964320
 H    -2.215265    -3.388822    -3.499049
 H    -1.859400    -1.711345    -3.062728
 H    -0.538150    -2.804414    -3.517768
Rh     0.056958    -1.779997    -0.687261
 O    -1.547373     1.159677    -0.618905
 C    -3.403114    -0.777876    -0.730412
 C    -1.988734    -0.325680     1.692638
 O     1.551564     0.606915     1.195851
 C     3.347975    -1.101480     0.121116
 C     2.144332     0.928242    -1.477387
 P     1.733470    -0.300394    -0.187337
 P    -1.721724    -0.418336    -0.111892
 C     1.160422    -3.255877    -0.502501
 O     1.785260    -4.193744    -0.277561
 C    -2.376247     2.222298    -0.184957
 H    -2.568408     2.859082    -1.065817
 H    -3.359023     1.843074     0.145257
 C    -1.710772     3.025505     0.912363
 H    -1.387208     2.332222     1.705717
 H    -0.792140     3.476748     0.505154
 C    -2.611730     4.099317     1.500753
 H    -3.522355     3.624642     1.908211
 H    -2.958101     4.776811     0.699534
 C    -1.928054     4.905492     2.593591
 H    -1.605745     4.252612     3.420692
 H    -1.029582     5.415227     2.209680
 H    -2.594109     5.674592     3.013229
 C    -4.217559    -1.750782    -0.128088
 H    -3.886322    -2.243519     0.789570
 C    -3.852349    -0.180583    -1.909710
 H    -3.226629     0.566733    -2.403637
 C    -5.441139    -2.096377    -0.678176
 H    -6.079278    -2.851704    -0.216009
 C    -5.082968    -0.515439    -2.473359
 H    -5.400089    -0.022917    -3.392728
 C    -5.886014    -1.481697    -1.857818
 O    -7.086586    -1.879812    -2.319897
 C    -7.570118    -1.325149    -3.510604
 H    -6.897192    -1.530363    -4.361806
 H    -8.542041    -1.795859    -3.705497
 H    -7.713711    -0.233112    -3.427516
 C    -0.934583    -0.686498     2.547412
 H    -0.016425    -1.080447     2.106902
 C    -3.172818     0.150298     2.267213
 H    -4.027090     0.400729     1.634062
 C    -1.049616    -0.543983     3.919943
 H    -0.234453    -0.822439     4.590286
 C    -3.300695     0.304381     3.645880
 H    -4.238471     0.680058     4.055572
 C    -2.229196    -0.035425     4.482472
 O    -2.249364     0.081014     5.822353
 C    -3.398751     0.586168     6.442646
 H    -4.280079    -0.052886     6.258032
 H    -3.193076     0.602831     7.520354
 H    -3.628262     1.612960     6.107027
 C     2.477082     1.608335     1.582417
 H     2.621448     1.507659     2.672007
 H     3.463010     1.430346     1.117865
 C     1.978460     2.998268     1.246679
 H     1.709693     3.028021     0.178025
 H     1.049115     3.184561     1.808147
 C     3.000807     4.083004     1.547886
 H     3.922347     3.881564     0.973259
 H     3.292307     4.034553     2.612512
 C     2.493405     5.477674     1.218432
 H     2.232005     5.559183     0.151130
 H     1.588124     5.719878     1.798538
 H     3.246436     6.249562     1.438019
 C     4.122019    -1.593921    -0.941933
 H     3.816213    -1.399176    -1.973505
 C     3.748371    -1.399776     1.423807
 H     3.143456    -1.052065     2.264744
 C     5.267135    -2.335613    -0.705025
 H     5.874264    -2.722418    -1.525489
 C     4.900025    -2.144924     1.677635
 H     5.180808    -2.356528     2.709545
 C     5.669232    -2.616973     0.609269
 O     6.795153    -3.343909     0.744162
 C     7.226677    -3.686804     2.030559
 H     6.476146    -4.293715     2.567111
 H     8.141229    -4.280863     1.908282
 H     7.460499    -2.794212     2.637885
 C     3.421474     1.493580    -1.638708
 H     4.256524     1.139895    -1.029378
 C     1.110356     1.385991    -2.299460
 H     0.107926     0.971538    -2.175275
 C     3.646777     2.493498    -2.570514
 H     4.635040     2.938162    -2.701986
 C     1.323340     2.389557    -3.242629
 H     0.490682     2.721497    -3.863118
 C     2.596786     2.954391    -3.379800
 O     2.906196     3.928096    -4.255031
 C     1.903911     4.424464    -5.097991
 H     1.074891     4.878068    -4.526635
 H     2.371063     5.198194    -5.720209
 H     1.493204     3.637676    -5.754729
