  90
scf done:    -2455.881009
 C     1.384857    -3.282182     0.147833
 H     1.702236    -3.851189    -0.739985
 H     2.312407    -2.979520     0.657694
 C     0.523082    -4.145273     1.056165
 H    -0.352525    -4.554882     0.526530
 H     1.083968    -5.006776     1.466682
 H     0.140770    -3.582674     1.926784
Rh     0.130874    -1.643569    -0.265172
 O     1.852369     0.438198     1.965579
 C     3.464797    -0.691320     0.130264
 C     1.704682     1.378919    -0.509762
 O    -1.744279     0.492234    -1.923334
 C    -3.223728    -0.858133     0.009491
 C    -1.636680     1.376174     0.663994
 P    -1.591878    -0.113372    -0.396046
 P     1.728535    -0.188408     0.431855
 C    -0.384779    -2.527327    -1.818382
 O    -0.540722    -2.942783    -2.881227
 C     1.195677    -0.211652     3.051287
 H     0.190452    -0.522988     2.705430
 C     1.053508     0.820353     4.148663
 H     0.511723     1.698796     3.772013
 H     2.046117     1.142413     4.499956
 H     0.500921     0.403995     5.004241
 C     1.964663    -1.444376     3.487001
 H     2.066309    -2.156836     2.655483
 H     2.973627    -1.170912     3.832214
 H     1.441826    -1.955560     4.309528
 C     4.492286    -0.336974     1.005601
 H     4.252805     0.222615     1.911969
 C     3.778417    -1.399624    -1.035046
 H     2.973297    -1.696956    -1.713210
 C     5.810006    -0.691321     0.720717
 H     6.604980    -0.410090     1.417470
 C     5.095689    -1.739471    -1.316849
 H     5.323698    -2.293384    -2.232079
 C     6.135958    -1.395898    -0.441937
 C     7.551083    -1.796000    -0.741476
 H     7.691286    -2.881569    -0.608865
 H     7.822621    -1.560981    -1.782084
 H     8.264162    -1.285485    -0.078912
 C     2.042160     2.597096     0.083666
 H     2.296078     2.622361     1.144823
 C     1.353565     1.352045    -1.863260
 H     1.056105     0.406125    -2.323437
 C     2.018563     3.769970    -0.666450
 H     2.270912     4.719959    -0.186318
 C     1.337627     2.528238    -2.605548
 H     1.048974     2.492266    -3.659696
 C     1.665814     3.758706    -2.021042
 C     1.653566     5.020253    -2.834197
 H     2.542617     5.078766    -3.483853
 H     0.771496     5.066971    -3.490979
 H     1.652855     5.914351    -2.194644
 C    -2.876266     1.196198    -2.439690
 H    -3.412572     1.684412    -1.605336
 C    -3.802429     0.221536    -3.143673
 H    -4.172470    -0.548028    -2.453159
 H    -3.263249    -0.279518    -3.961994
 H    -4.669574     0.750538    -3.567410
 C    -2.349810     2.264530    -3.377457
 H    -1.689964     2.967756    -2.850834
 H    -1.772101     1.797879    -4.189779
 H    -3.181724     2.830971    -3.821784
 C    -3.367126    -2.248220    -0.053668
 H    -2.496078    -2.861916    -0.298417
 C    -4.350231    -0.089298     0.341131
 H    -4.264865     0.996549     0.425429
 C    -4.599736    -2.850551     0.187740
 H    -4.685260    -3.939040     0.130190
 C    -5.579040    -0.694435     0.573992
 H    -6.444886    -0.073736     0.821836
 C    -5.728186    -2.086774     0.500624
 C    -7.053367    -2.731213     0.780120
 H    -7.877002    -2.177890     0.304522
 H    -7.082213    -3.768856     0.419601
 H    -7.258927    -2.749881     1.863316
 C    -1.226438     2.622009     0.186535
 H    -0.912246     2.727849    -0.852887
 C    -1.993774     1.260534     2.015775
 H    -2.321643     0.295825     2.412902
 C    -1.188756     3.727014     1.034953
 H    -0.858231     4.690490     0.637892
 C    -1.953099     2.366296     2.855299
 H    -2.242544     2.255048     3.904232
 C    -1.547080     3.622365     2.380784
 C    -1.479898     4.802843     3.304241
 H    -2.411101     4.916453     3.880454
 H    -0.661798     4.685150     4.033987
 H    -1.302852     5.736988     2.753288
