  36
scf done:    -1224.858827
 C    -1.571445    -2.086341     0.230126
 H    -1.220632    -3.075019     0.566526
 H    -2.290340    -1.768246     1.003496
 C    -2.262320    -2.254006    -1.118078
 H    -3.091242    -2.987109    -1.079986
 H    -2.692945    -1.312133    -1.500981
 H    -1.560553    -2.604815    -1.891473
Rh     0.016134    -0.673872     0.107117
 C    -2.022439     1.754095    -1.495082
 C    -3.281748     0.644277     0.792110
 C    -1.218683     2.523796     1.136679
 C     2.455979     1.570898     1.368765
 C     3.348123    -0.077231    -0.753422
 C     1.740072     2.158642    -1.328091
 P     1.820884     0.745443    -0.147644
 P    -1.610353     1.028260     0.141909
 C     1.094427    -2.148122     0.331762
 O     1.749783    -3.075809     0.520114
 H    -1.112961     2.153702    -1.963709
 H    -2.414775     0.959233    -2.145576
 H    -2.772403     2.555902    -1.408055
 H    -3.730640    -0.173855     0.213149
 H    -3.198814     0.316240     1.838003
 H    -3.931843     1.530846     0.737435
 H    -2.048263     3.247618     1.116874
 H    -1.028399     2.219460     2.176109
 H    -0.312525     3.011451     0.752606
 H     2.695904     0.795367     2.110498
 H     3.355737     2.173312     1.165549
 H     1.676575     2.214629     1.799743
 H     3.630404    -0.878371    -0.055338
 H     3.142649    -0.540053    -1.729654
 H     4.184962     0.631772    -0.852643
 H     1.470303     1.776711    -2.323748
 H     0.969743     2.878825    -1.018105
 H     2.705992     2.683625    -1.394489
