 100
scf done:    -2835.241944
 C    -0.910919    -1.584165    -3.302720
 H    -0.515004    -2.426476    -3.888941
 H    -1.868642    -1.934425    -2.886596
 C    -1.123913    -0.362639    -4.185133
 H    -1.816574    -0.578604    -5.020364
 H    -1.559015     0.476440    -3.618967
 H    -0.181069    -0.010614    -4.635956
Rh     0.470764    -0.942718    -1.821616
 O    -1.179028    -0.029160     0.926370
 O    -2.602699     0.120935    -1.224789
 O    -2.149675    -2.088181    -0.176837
 O     2.417677    -0.733768     0.917040
 O     3.327080     0.415178    -1.204461
 O     1.550533     1.482074     0.269292
 P     1.923858     0.016773    -0.425796
 P    -1.350633    -0.681241    -0.551415
 C     1.743588    -2.022111    -2.685288
 O     2.476206    -2.782037    -3.128937
 C    -1.882033    -0.402473     2.115415
 H    -2.899634    -0.737222     1.866437
 H    -1.349125    -1.252661     2.571837
 C    -1.925661     0.778272     3.056857
 H    -2.329253     0.421319     4.021159
 H    -0.892070     1.107823     3.260371
 C    -2.751361     1.943283     2.535850
 H    -3.790058     1.608792     2.370914
 H    -2.368545     2.225617     1.544065
 C    -2.732951     3.154011     3.451617
 H    -3.128217     2.916019     4.452758
 H    -1.707992     3.537186     3.588315
 H    -3.341284     3.974887     3.041637
 C    -3.758213     0.581903    -0.646460
 C    -4.001876     1.953126    -0.697185
 H    -3.250104     2.599162    -1.152343
 C    -4.691642    -0.277331    -0.072036
 H    -4.497881    -1.350554    -0.063576
 C    -5.173370     2.463784    -0.151942
 H    -5.353995     3.541917    -0.192273
 C    -5.857285     0.254459     0.479134
 H    -6.585724    -0.422910     0.933299
 C    -6.120201     1.627810     0.456053
 C    -7.369703     2.197164     1.063164
 H    -7.136580     2.829725     1.935179
 H    -8.051488     1.403837     1.400022
 H    -7.914602     2.827769     0.343412
 C    -1.508078    -3.266563     0.105872
 C    -2.198928    -4.447420    -0.158730
 H    -3.197097    -4.388013    -0.596457
 C    -0.227689    -3.316280     0.656567
 H     0.331183    -2.400230     0.856352
 C    -1.608504    -5.672469     0.133102
 H    -2.161750    -6.592218    -0.076575
 C     0.350664    -4.553017     0.934106
 H     1.357501    -4.576112     1.360238
 C    -0.321232    -5.752182     0.679907
 C     0.324020    -7.080358     0.951437
 H     0.784047    -7.491613     0.037240
 H    -0.407951    -7.820291     1.308038
 H     1.118153    -6.995136     1.707054
 C     3.002467    -0.126807     2.076986
 H     3.928849    -0.686107     2.282507
 H     3.277379     0.915004     1.863427
 C     2.050430    -0.195661     3.248803
 H     2.514580     0.355249     4.086268
 H     1.135115     0.357413     2.980005
 C     1.700760    -1.608723     3.692552
 H     2.632093    -2.154239     3.927278
 H     1.242961    -2.148302     2.848484
 C     0.769824    -1.646334     4.893356
 H     1.224785    -1.158492     5.770553
 H    -0.175578    -1.121105     4.683828
 H     0.518862    -2.679093     5.178196
 C     4.403325     1.027327    -0.610528
 C     5.480420     0.250165    -0.190357
 H     5.439110    -0.831407    -0.332749
 C     4.429069     2.411669    -0.448324
 H     3.581017     3.007628    -0.789501
 C     6.578261     0.863403     0.406931
 H     7.419280     0.247542     0.737630
 C     5.533763     3.008118     0.152869
 H     5.546539     4.093894     0.282821
 C     6.626215     2.250161     0.592850
 C     7.826055     2.909038     1.209656
 H     8.353000     2.228590     1.894103
 H     7.546037     3.811206     1.772978
 H     8.548663     3.218986     0.436117
 C     0.669295     2.379183    -0.259371
 C     0.361439     2.434954    -1.619506
 H     0.835861     1.744786    -2.323765
 C     0.064040     3.271584     0.626033
 H     0.311845     3.205711     1.686823
 C    -0.569115     3.368660    -2.074652
 H    -0.814917     3.387398    -3.139790
 C    -0.849609     4.204706     0.152493
 H    -1.324337     4.889553     0.860925
 C    -1.190116     4.270281    -1.205945
 C    -2.177352     5.285850    -1.705431
 H    -3.022845     5.400700    -1.009622
 H    -2.581576     5.005121    -2.688548
 H    -1.710740     6.279269    -1.812788
