  98
scf done:    -2160.882858
 C     0.788012    -3.221575     0.350934
 H     0.991865    -3.822261    -0.552068
 H     1.775298    -2.996736     0.782865
 C    -0.022576    -4.042356     1.346239
 H    -0.974122    -4.393489     0.915696
 H     0.527117    -4.939221     1.690443
 H    -0.281309    -3.464871     2.249635
Rh    -0.275961    -1.438333    -0.132573
 O     2.585465    -0.837623     1.637442
 C     2.942510    -1.033738    -0.989708
 C     2.103266     1.404448     0.257008
 O    -1.441162     1.516738    -1.433385
 C    -3.428655    -0.331937    -0.945893
 C    -2.306119     1.202889     1.140937
 P    -1.783746     0.282143    -0.370368
 P     1.757739    -0.404616     0.259510
 C    -1.266920    -2.575332    -1.197420
 O    -1.750444    -3.272229    -1.977850
 C     1.892789    -1.064896     2.860178
 H     0.828774    -1.268654     2.622838
 C     1.987368     0.171639     3.736431
 H     1.561988     1.049731     3.231230
 H     3.040653     0.392362     3.968351
 H     1.445395     0.025640     4.683217
 C     2.498600    -2.285032     3.523226
 H     2.395785    -3.169176     2.879972
 H     3.569431    -2.116544     3.716300
 H     2.000758    -2.493080     4.482072
 H     2.529633    -0.754814    -1.973807
 H     2.849423    -2.127217    -0.925253
 C     4.388083    -0.585261    -0.833832
 H     4.454353     0.506988    -0.973751
 H     4.717751    -0.784782     0.200479
 C     5.361191    -1.253815    -1.810184
 H     4.972205    -1.089995    -2.833253
 C     6.732951    -0.594548    -1.719803
 H     6.676452     0.485693    -1.927185
 H     7.441888    -1.038837    -2.435679
 H     7.158701    -0.717546    -0.709854
 C     5.468529    -2.757865    -1.583063
 H     6.176210    -3.215600    -2.291487
 H     4.502637    -3.269518    -1.707034
 H     5.830538    -2.971843    -0.563384
 H     3.143260     1.509456     0.609215
 H     1.462701     1.844023     1.034399
 C     1.902233     2.110767    -1.075543
 H     2.421280     1.551872    -1.872566
 H     0.832769     2.097101    -1.344841
 C     2.434238     3.548046    -1.091110
 H     3.511002     3.499923    -0.838927
 C     2.314703     4.146183    -2.488029
 H     2.836303     3.528127    -3.235315
 H     2.741531     5.160272    -2.531010
 H     1.259087     4.216372    -2.797562
 C     1.758939     4.438129    -0.053005
 H     2.155783     5.464399    -0.092716
 H     1.911611     4.066597     0.971470
 H     0.673075     4.494065    -0.230891
 C    -2.393233     2.469992    -1.902530
 H    -3.324527     2.387738    -1.312481
 C    -2.704664     2.172244    -3.356878
 H    -3.123060     1.162268    -3.470782
 H    -1.782859     2.227342    -3.955498
 H    -3.428733     2.895777    -3.761064
 C    -1.831584     3.862070    -1.697382
 H    -1.633761     4.050548    -0.633055
 H    -0.888839     3.981257    -2.251105
 H    -2.541673     4.622361    -2.055451
 H    -3.242507    -0.816810    -1.918699
 H    -4.112638     0.510949    -1.129622
 C    -4.048621    -1.330040     0.029262
 H    -3.247730    -1.946850     0.475401
 H    -4.520348    -0.787516     0.868221
 C    -5.081438    -2.266545    -0.601127
 H    -4.566828    -2.811622    -1.413969
 C    -5.556691    -3.292565     0.420161
 H    -4.712528    -3.867335     0.831787
 H    -6.263829    -4.007400    -0.028254
 H    -6.070415    -2.800995     1.263592
 C    -6.255931    -1.507641    -1.207880
 H    -6.987626    -2.199218    -1.653437
 H    -5.935323    -0.813820    -1.999984
 H    -6.782038    -0.918207    -0.437463
 H    -2.713145     0.451634     1.838141
 H    -3.148422     1.856962     0.858458
 C    -1.189068     1.991314     1.804428
 H    -0.445178     1.275637     2.190629
 H    -0.663097     2.597242     1.046199
 C    -1.641285     2.913362     2.940872
 H    -2.249688     2.308922     3.639853
 C    -0.435348     3.446692     3.706035
 H     0.155674     2.631269     4.149230
 H    -0.741327     4.120587     4.521000
 H     0.230179     4.016966     3.036184
 C    -2.505047     4.065135     2.437417
 H    -2.852678     4.694404     3.271033
 H    -3.397689     3.716481     1.896394
 H    -1.929101     4.711417     1.753684
