 110
scf done:    -3214.271501
 C     1.578450    -2.900752    -0.977030
 H     1.121016    -3.660630    -1.634750
 H     2.526550    -2.617783    -1.458700
 C     1.833855    -3.490307     0.401294
 H     2.376279    -4.454510     0.347985
 H     2.432110    -2.818727     1.035598
 H     0.894013    -3.686182     0.947588
Rh     0.205314    -1.329716    -0.778336
 O     2.070264    -0.227896     1.875889
 C     3.611448    -0.613183    -0.253014
 C     2.011992     1.677724    -0.058931
 O    -2.266846     0.646478    -1.789508
 C    -3.240431    -1.243441    -0.047615
 C    -2.048872     1.092661     0.960967
 P    -1.792452    -0.131186    -0.418206
 P     1.882065    -0.153164     0.239265
 C    -0.167794    -1.505175    -2.583175
 O    -0.157505    -1.355363    -3.733845
 C     0.968754    -0.263019     2.754624
 H     0.061579    -0.521918     2.181535
 C     0.807425     1.105133     3.394707
 H     0.557043     1.863419     2.638221
 H     1.751524     1.397917     3.880212
 H     0.007632     1.103626     4.149033
 C     1.228292    -1.360148     3.769945
 H     1.327018    -2.330712     3.263610
 H     2.164052    -1.158960     4.314923
 H     0.406685    -1.424067     4.500182
 C     3.910052    -0.409184    -1.615080
 O     2.906536     0.102855    -2.346723
 C     2.974278     0.087838    -3.742755
 H     1.972918     0.348036    -4.104234
 H     3.707564     0.820289    -4.124898
 H     3.231473    -0.915103    -4.122958
 C     4.618853    -1.180374     0.555112
 O     4.338276    -1.437029     1.846136
 C     5.284110    -2.069413     2.650645
 H     4.814785    -2.197721     3.635185
 H     6.201019    -1.464253     2.772360
 H     5.567754    -3.063109     2.259565
 C     5.875360    -1.493417     0.010255
 H     6.653656    -1.925391     0.637279
 C     5.157439    -0.725660    -2.163683
 H     5.362721    -0.551628    -3.219064
 C     6.133086    -1.261729    -1.334317
 H     7.114991    -1.510872    -1.744159
 C     2.921998     2.446839     0.703788
 O     3.706081     1.775812     1.560760
 C     4.636770     2.451791     2.346904
 H     5.142983     1.684567     2.947067
 H     5.388517     2.983206     1.736278
 H     4.155060     3.176262     3.027852
 C     1.288088     2.341094    -1.071099
 O     0.516965     1.593033    -1.864690
 C    -0.017056     2.134117    -3.035926
 H    -0.449408     1.293104    -3.588047
 H     0.766275     2.617713    -3.646183
 H    -0.819156     2.858116    -2.823777
 C     1.404103     3.729354    -1.250700
 H     0.835705     4.230646    -2.031955
 C     3.019993     3.835986     0.542772
 H     3.707264     4.419941     1.153228
 C     2.252318     4.460900    -0.432036
 H     2.333483     5.542427    -0.569101
 C    -3.509021     0.674009    -2.479650
 H    -4.226507     0.010692    -1.974939
 C    -3.283604     0.138363    -3.881330
 H    -2.869632    -0.878382    -3.848292
 H    -2.574614     0.772290    -4.434881
 H    -4.232837     0.115939    -4.438545
 C    -4.055629     2.088543    -2.477071
 H    -4.175828     2.448881    -1.448196
 H    -3.367934     2.766859    -3.005160
 H    -5.031922     2.124435    -2.984867
 C    -4.512309    -0.729479     0.286167
 O    -4.647343     0.610398     0.246743
 C    -5.773686     1.223966     0.803125
 H    -5.582594     2.304356     0.770664
 H    -6.691871     1.004874     0.230394
 H    -5.920611     0.921174     1.853826
 C    -3.072254    -2.641657     0.012285
 O    -1.838205    -3.119277    -0.203309
 C    -1.634832    -4.494610    -0.382985
 H    -0.587613    -4.609394    -0.684964
 H    -2.287606    -4.896706    -1.175780
 H    -1.806150    -5.057778     0.550654
 C    -4.143795    -3.490420     0.331062
 H    -4.003609    -4.569770     0.361162
 C    -5.578724    -1.568011     0.631079
 H    -6.556054    -1.153954     0.875461
 C    -5.381652    -2.943941     0.638784
 H    -6.212632    -3.605268     0.896062
 C    -2.293501     0.573589     2.247364
 O    -2.177079    -0.766500     2.368773
 C    -2.706614    -1.426037     3.481896
 H    -2.613961    -2.500186     3.276474
 H    -2.150378    -1.190203     4.405654
 H    -3.772637    -1.179342     3.626086
 C    -2.048933     2.492612     0.816479
 O    -1.785946     2.997087    -0.403769
 C    -1.881000     4.377537    -0.600885
 H    -1.702001     4.554408    -1.668869
 H    -1.119833     4.927695    -0.022306
 H    -2.884998     4.759386    -0.344224
 C    -2.346241     3.324507     1.908231
 H    -2.342428     4.407139     1.794775
 C    -2.630709     1.392018     3.328641
 H    -2.838711     0.963770     4.308563
 C    -2.652148     2.768510     3.143677
 H    -2.892205     3.424279     3.983857
