  86
scf done:    -2003.730382
 C     0.984033    -2.310842     2.378634
 H     1.490520    -3.196549     1.956084
 H     1.792582    -1.666664     2.761411
 C     0.100998    -2.717772     3.551536
 H    -0.647505    -3.474100     3.266184
 H     0.688175    -3.141588     4.388369
 H    -0.460085    -1.860516     3.961145
Rh    -0.157048    -1.305168     0.894670
 O     1.964817     1.282982     1.736570
 C     3.236992    -0.817293     0.540889
 C     1.741957     1.151259    -0.893925
 O    -1.151850     0.572531    -1.741869
 C    -3.213115    -1.021569    -0.791228
 C    -2.344205     1.351147     0.615231
 P    -1.683195    -0.098740    -0.315835
 P     1.648148     0.101216     0.600142
 C    -0.992143    -2.938596     0.616057
 O    -1.370523    -3.984398     0.316981
 C     1.549088     1.097309     3.067306
 H     0.563539     0.598809     3.117422
 H     2.270073     0.488295     3.639414
 H     1.476354     2.088612     3.538697
 H     4.061046    -0.089404     0.470753
 H     3.340758    -1.330906     1.508648
 C     3.275302    -1.833693    -0.592998
 H     2.352684    -2.440179    -0.557221
 H     3.257137    -1.311791    -1.566416
 C     4.491369    -2.747022    -0.536172
 H     4.497563    -3.278571     0.432691
 H     5.413311    -2.136858    -0.549554
 C     4.539388    -3.762586    -1.669053
 H     3.612858    -4.363033    -1.652314
 H     4.529647    -3.227368    -2.635342
 C     5.748005    -4.682264    -1.605403
 H     5.754358    -5.404630    -2.435761
 H     5.762762    -5.256738    -0.665162
 H     6.688936    -4.110509    -1.654579
 H     1.569336     0.479569    -1.750799
 H     0.851731     1.794873    -0.860742
 C     3.002768     1.985418    -1.062194
 H     3.205362     2.529382    -0.124502
 H     3.873809     1.330087    -1.234216
 C     2.892321     2.974912    -2.214372
 H     2.028814     3.642222    -2.036949
 H     2.659366     2.428240    -3.146693
 C     4.144691     3.815306    -2.420122
 H     4.377385     4.349840    -1.482138
 H     5.003757     3.145076    -2.601075
 C     4.023579     4.811358    -3.562015
 H     4.943403     5.402684    -3.686599
 H     3.195331     5.517633    -3.389556
 H     3.824686     4.300699    -4.518148
 C    -1.936140     1.348059    -2.607983
 H    -2.626209     0.725749    -3.203273
 H    -2.526384     2.114418    -2.075134
 H    -1.254488     1.862804    -3.301577
 H    -2.911078    -1.625586    -1.665560
 H    -3.357496    -1.750514     0.022815
 C    -4.525311    -0.292546    -1.054501
 H    -4.851437     0.225595    -0.136773
 H    -4.397980     0.495213    -1.814564
 C    -5.631735    -1.238756    -1.503842
 H    -5.758820    -2.034737    -0.747965
 H    -5.316238    -1.755884    -2.428262
 C    -6.966517    -0.546182    -1.740829
 H    -7.275545    -0.030349    -0.814295
 H    -6.832140     0.250607    -2.494157
 C    -8.066727    -1.494214    -2.189733
 H    -9.017978    -0.965387    -2.352475
 H    -8.247066    -2.280146    -1.438873
 H    -7.800085    -1.997577    -3.132955
 H    -3.238005     1.767793     0.122986
 H    -2.686072     0.927663     1.576419
 C    -1.302635     2.435823     0.850034
 H    -0.358642     1.977488     1.183603
 H    -1.068134     2.929810    -0.109171
 C    -1.722273     3.487004     1.866029
 H    -1.923552     2.993175     2.834333
 H    -2.679707     3.947268     1.559817
 C    -0.672082     4.572496     2.060159
 H     0.289420     4.097053     2.323042
 H    -0.494449     5.078081     1.094310
 C    -1.047839     5.599667     3.115253
 H    -0.270770     6.370875     3.227114
 H    -1.190628     5.126551     4.100238
 H    -1.989491     6.111397     2.858558
