  90
scf done:    -2455.865415
 C    -0.498939     2.123219    -2.445655
 H    -0.553437     1.847020    -3.511806
 H    -1.535929     2.327760    -2.135127
 C     0.345767     3.376078    -2.263295
 H     1.361720     3.253381    -2.671563
 H    -0.103973     4.253376    -2.765910
 H     0.470361     3.645352    -1.202244
Rh     0.390106     0.593847    -1.261925
 O    -2.715370     1.499183    -0.147832
 C    -2.699048    -0.423220    -1.976036
 C    -2.157983    -1.024598     0.826328
 O     1.039407    -1.798416     1.214491
 C     3.074776    -1.558020    -0.591522
 C     2.436609     0.442841     1.480505
 P     1.668387    -0.627318     0.177004
 P    -1.748999     0.209410    -0.521996
 C     1.549857     0.398845    -2.690591
 O     2.160710     0.174040    -3.641931
 C    -2.187788     2.600499     0.556041
 H    -1.092616     2.671245     0.432913
 H    -2.644852     3.516459     0.153591
 H    -2.428886     2.521872     1.628465
 H    -2.660667     0.412625    -2.690660
 H    -2.073875    -1.219934    -2.401480
 C    -4.107516    -0.863763    -1.717490
 C    -5.098177     0.103350    -1.503690
 H    -4.813097     1.156356    -1.531583
 C    -4.454343    -2.230573    -1.665848
 C    -3.448797    -3.313497    -1.944274
 H    -2.582549    -3.273606    -1.264367
 H    -3.049625    -3.237898    -2.968877
 H    -3.904988    -4.307139    -1.838064
 C    -6.411870    -0.257834    -1.225177
 H    -7.165497     0.514570    -1.055634
 C    -5.780578    -2.575844    -1.377157
 H    -6.052393    -3.634129    -1.333737
 C    -6.755089    -1.606389    -1.154417
 H    -7.781841    -1.906037    -0.931513
 H    -2.612442    -1.894952     0.332864
 H    -1.191857    -1.331417     1.242916
 C    -3.070430    -0.521575     1.905936
 C    -4.452380    -0.707347     1.808302
 H    -4.859448    -1.230936     0.941263
 C    -2.542046     0.143250     3.030194
 C    -1.060870     0.328961     3.177267
 H    -0.621674     0.773720     2.271449
 H    -0.541421    -0.631832     3.327360
 H    -0.822037     0.980740     4.029454
 C    -5.313535    -0.231346     2.792668
 H    -6.390357    -0.384900     2.690302
 C    -3.419221     0.617089     4.010803
 H    -3.008747     1.134164     4.882846
 C    -4.796301     0.439111     3.898155
 H    -5.461944     0.820239     4.676369
 C     0.593883    -3.002331     0.637438
 H     0.069576    -2.826387    -0.320634
 H     1.434787    -3.696110     0.460166
 H    -0.107083    -3.477198     1.338494
 H     2.593447    -2.390266    -1.137844
 H     3.434046    -0.893856    -1.386842
 C     4.226026    -2.053523     0.241941
 C     4.040986    -2.504733     1.555744
 H     3.039367    -2.476671     1.988777
 C     5.523307    -2.088754    -0.317519
 C     5.782001    -1.659672    -1.734029
 H     5.545169    -0.595606    -1.894576
 H     5.173179    -2.231305    -2.452224
 H     6.837773    -1.805636    -1.999502
 C     5.108838    -2.968748     2.320218
 H     4.935730    -3.310533     3.343372
 C     6.582950    -2.556245     0.467266
 H     7.586406    -2.582113     0.033462
 C     6.388751    -2.991224     1.775569
 H     7.236396    -3.349784     2.364243
 H     1.830270     0.248024     2.376959
 H     3.449515     0.068689     1.696007
 C     2.431199     1.914669     1.161725
 C     1.496729     2.743665     1.795610
 H     0.797611     2.301222     2.507324
 C     3.354618     2.493338     0.266954
 C     4.374736     1.674292    -0.466610
 H     3.944049     1.271781    -1.398366
 H     4.742123     0.823677     0.126066
 H     5.241303     2.287369    -0.750806
 C     1.451437     4.113957     1.557471
 H     0.711852     4.733253     2.070404
 C     3.302400     3.873960     0.044478
 H     4.022442     4.320920    -0.646406
 C     2.362535     4.684307     0.673302
 H     2.345565     5.758337     0.474761
