  92
scf done:    -2606.123821
 C     0.801452    -2.992968     1.803139
 H     0.859167    -4.051851     1.502364
 H     1.837497    -2.713846     2.057826
 C    -0.102702    -2.858413     3.019813
 H    -1.133635    -3.176526     2.793933
 H     0.248835    -3.473986     3.870150
 H    -0.159511    -1.819451     3.384837
Rh    -0.112391    -1.738525     0.362167
 C     2.136178     0.117362     2.315847
 C     3.261717    -1.232680    -0.053412
 C     1.847715     1.071573    -0.655955
 C    -1.506889    -0.087690    -2.553445
 C    -3.405696    -0.771484    -0.446694
 C    -1.575385     1.418609    -0.041354
 P    -1.632428    -0.290400    -0.701222
 P     1.755527    -0.335839     0.542699
 C    -0.653713    -3.316414    -0.400369
 O    -0.765970    -4.317892    -0.969569
 H     2.138181    -0.912073     2.716677
 C     3.470651     0.739883     2.692684
 H     3.527002     0.819253     3.791561
 H     4.316624     0.125176     2.359120
 H     3.584965     1.742778     2.264799
 C     0.942221     0.825400     2.946012
 H     0.008766     0.295040     2.710912
 H     1.058677     0.849830     4.041834
 H     0.844704     1.854894     2.579758
 C     3.172084    -2.588015    -0.377535
 H     2.208497    -3.079497    -0.227236
 C     4.481476    -0.566402    -0.312749
 O     4.527964     0.750636    -0.037472
 C     5.612277     1.519292    -0.466855
 H     6.545840     1.249465     0.057838
 H     5.363249     2.562935    -0.233932
 H     5.770710     1.426086    -1.555072
 C     4.254261    -3.290566    -0.906769
 H     4.150530    -4.350541    -1.146765
 C     5.567531    -1.264570    -0.850433
 H     6.508543    -0.750666    -1.048255
 C     5.451981    -2.624167    -1.136620
 H     6.310412    -3.156730    -1.553836
 C     1.811133     0.661799    -1.991756
 H     1.705185    -0.406844    -2.201897
 C     1.982929     2.445714    -0.390618
 O     2.004246     2.827871     0.900498
 C     2.177227     4.177104     1.224672
 H     3.142978     4.566166     0.855595
 H     2.165158     4.236182     2.320752
 H     1.358951     4.800023     0.827105
 C     1.917231     1.564612    -3.048681
 H     1.888884     1.206687    -4.079891
 C     2.098749     3.358525    -1.446073
 H     2.207114     4.423184    -1.239397
 C     2.063719     2.919206    -2.767963
 H     2.152467     3.647178    -3.578058
 H    -0.587819     0.509306    -2.671601
 C    -1.257898    -1.456081    -3.178638
 H    -1.138501    -1.356087    -4.269316
 H    -0.355192    -1.929491    -2.767631
 H    -2.103126    -2.140100    -2.998698
 C    -2.662912     0.630981    -3.234424
 H    -2.857531     1.620908    -2.803593
 H    -2.439853     0.753903    -4.306994
 H    -3.590962     0.043809    -3.154079
 C    -3.697196    -2.110089    -0.180577
 H    -2.866061    -2.810864    -0.102936
 C    -4.489086     0.138634    -0.489303
 O    -4.203086     1.430625    -0.734065
 C    -5.202798     2.403355    -0.666334
 H    -5.973011     2.260827    -1.445053
 H    -4.703289     3.367383    -0.827555
 H    -5.693874     2.416903     0.322503
 C    -5.000948    -2.565113     0.017406
 H    -5.183941    -3.622612     0.217444
 C    -5.797357    -0.308503    -0.274815
 H    -6.628454     0.396278    -0.305919
 C    -6.050247    -1.657051    -0.028408
 H    -7.079327    -1.988488     0.131572
 C    -1.168307     2.527905    -0.776147
 H    -0.844592     2.406787    -1.811069
 C    -1.956086     1.606342     1.303775
 O    -2.308795     0.485946     1.964901
 C    -2.798715     0.565892     3.272906
 H    -2.043515     0.973435     3.967333
 H    -3.042492    -0.460440     3.573778
 H    -3.710410     1.186164     3.325046
 C    -1.168448     3.806626    -0.214004
 H    -0.851016     4.660907    -0.815855
 C    -1.963717     2.880152     1.872160
 H    -2.267035     3.022377     2.909677
 C    -1.573735     3.979518     1.104127
 H    -1.585695     4.976268     1.552562
