  60
scf done:    -1539.110578
 C    -1.150309    -2.711950    -0.673283
 H    -0.830907    -3.687239    -0.272905
 H    -2.206835    -2.619369    -0.374531
 C    -1.021815    -2.746464    -2.190946
 H    -1.556489    -3.605422    -2.640551
 H    -1.425955    -1.839611    -2.673408
 H     0.030609    -2.825230    -2.509502
Rh     0.035023    -1.115049     0.080666
 C    -1.472562     1.164012    -2.265608
 C    -3.352120    -0.265135    -0.664012
 C    -1.817097     1.862004     0.513707
 C     1.480836     1.350941     2.252321
 C     3.310663    -0.234983     0.776976
 C     1.871835     1.868156    -0.570645
 P     1.615648     0.484334     0.635515
 P    -1.633903     0.396818    -0.601067
 C     0.915046    -2.422640     1.024691
 O     1.401599    -3.229451     1.689439
 H    -0.533407     1.732202    -2.319130
 H    -1.424405     0.362640    -3.016426
 H    -2.315594     1.828363    -2.507198
 H    -4.022329     0.492282    -1.104822
 H    -3.326071    -1.112535    -1.368293
 C    -3.861059    -0.727638     0.696159
 H    -4.001696     0.146630     1.354967
 H    -3.081740    -1.344579     1.175335
 C    -5.161724    -1.509373     0.603337
 H    -5.959667    -0.911602     0.133741
 H    -5.030299    -2.420824    -0.001288
 H    -5.516935    -1.818341     1.598082
 H    -1.880536     1.451185     1.535407
 H    -0.855039     2.398438     0.472293
 C    -2.962616     2.829966     0.250143
 H    -3.925320     2.297859     0.323311
 H    -2.903897     3.208622    -0.784144
 C    -2.960933     4.003704     1.218646
 H    -3.052302     3.659319     2.261135
 H    -2.025935     4.582086     1.144153
 H    -3.795794     4.692895     1.020530
 H     1.410834     0.584894     3.038128
 H     2.342887     2.002410     2.461481
 H     0.557516     1.945608     2.282496
 H     4.025138     0.540547     1.102545
 H     3.250825    -0.972456     1.595492
 C     3.783581    -0.915647    -0.500763
 H     3.901583    -0.162137    -1.299303
 H     2.991460    -1.601459    -0.848542
 C     5.088024    -1.675182    -0.318433
 H     5.899192    -1.009790     0.019112
 H     4.977307    -2.471622     0.434455
 H     5.412906    -2.147628    -1.257849
 H     1.920265     1.389393    -1.563832
 H     0.935727     2.451855    -0.572106
 C     3.061502     2.797056    -0.369756
 H     3.997703     2.217233    -0.422209
 H     3.031172     3.232173     0.643445
 C     3.104162     3.916366    -1.399880
 H     3.166610     3.513096    -2.423269
 H     2.198719     4.542291    -1.347814
 H     3.973211     4.574186    -1.247103
