  94
scf done:    -2832.339970
 C    -1.415242    -0.922127     3.307155
 H    -1.509479    -0.254275     4.178261
 H    -2.434747    -0.981425     2.891303
 C    -0.952373    -2.305289     3.742617
 H     0.034701    -2.276184     4.231702
 H    -1.656318    -2.766832     4.459778
 H    -0.870927    -2.999419     2.890347
Rh     0.005670    -0.090675     1.929372
 C    -2.154158    -2.364543     0.412084
 O    -3.116857     0.053711     0.678812
 O    -1.323979    -0.271643    -1.123730
 C     2.234414     2.334124     0.781406
 O     3.109437    -0.123717     0.700239
 O     1.355400     0.526954    -1.063771
 P     1.634715     0.633848     0.562463
 P    -1.629387    -0.631341     0.455280
 C     0.888859     0.530165     3.467122
 O     1.356442     0.954593     4.421539
 C    -1.165021    -3.300323     0.083723
 C    -3.451658    -2.789823     0.706859
 C    -2.775636    -5.080173     0.327227
 C    -3.757210    -4.149273     0.665439
 C    -1.478838    -4.655138     0.034162
 H    -0.146276    -2.966470    -0.132907
 H    -0.706025    -5.381410    -0.228204
 H    -3.021203    -6.144397     0.295365
 H    -4.770750    -4.483952     0.898560
 H    -4.213964    -2.051626     0.960573
 C    -3.322584     1.414750     0.736037
 C    -2.467104     2.257464     1.441852
 H    -1.611774     1.820466     1.973097
 C    -4.448432     1.903642     0.056125
 C    -5.373707     0.967368    -0.656409
 H    -4.839346     0.375236    -1.413800
 H    -5.826728     0.250610     0.046811
 H    -6.182121     1.519300    -1.154088
 C    -2.703313     3.631075     1.444200
 H    -2.028352     4.291271     1.994481
 C    -4.659524     3.285429     0.079895
 H    -5.525378     3.689091    -0.451844
 C    -3.797056     4.148981     0.754757
 H    -3.987718     5.224473     0.748872
 C    -2.227701    -0.152331    -2.150762
 C    -2.952060    -1.250431    -2.610997
 H    -2.818467    -2.221293    -2.133198
 C    -2.337951     1.112286    -2.750585
 C    -1.521639     2.264109    -2.250782
 H    -1.514227     3.084125    -2.981412
 H    -1.933340     2.657217    -1.306633
 H    -0.488408     1.950716    -2.045454
 C    -3.838163    -1.090612    -3.674792
 H    -4.411097    -1.948474    -4.033962
 C    -3.231225     1.238755    -3.818433
 H    -3.333840     2.214433    -4.301040
 C    -3.982549     0.157378    -4.276462
 H    -4.674240     0.288911    -5.111505
 C     3.571383     2.664025     1.020703
 C     1.266124     3.343650     0.704829
 C     2.974809     5.006467     1.077151
 C     1.638847     4.677474     0.842764
 C     3.936421     4.000839     1.170744
 H     4.316980     1.869823     1.080504
 H     4.980946     4.259319     1.360405
 H     3.266786     6.053034     1.193046
 H     0.882378     5.462740     0.773642
 H     0.217719     3.080548     0.535076
 C     3.259611    -1.484717     0.577624
 C     2.362002    -2.382178     1.154376
 H     1.515498    -1.990916     1.735547
 C     4.375774    -1.927504    -0.150065
 C     5.347453    -0.943225    -0.722830
 H     6.132544    -1.455420    -1.294861
 H     4.845117    -0.225065    -1.387513
 H     5.829486    -0.356419     0.075299
 C     2.543410    -3.752436     0.975737
 H     1.833640    -4.450371     1.426577
 C     4.532482    -3.307385    -0.309332
 H     5.390170    -3.671415    -0.881434
 C     3.626767    -4.218018     0.234651
 H     3.775914    -5.289998     0.087445
 C     2.278916     0.538943    -2.078705
 C     3.029032     1.678722    -2.364010
 H     2.896870     2.574527    -1.757027
 C     2.383929    -0.627080    -2.854504
 C     1.538838    -1.824372    -2.546048
 H     1.922689    -2.358466    -1.661215
 H     0.505731    -1.524953    -2.321198
 H     1.536804    -2.529066    -3.388507
 C     3.937205     1.657258    -3.420882
 H     4.530030     2.547898    -3.641321
 C     3.298272    -0.614873    -3.911838
 H     3.395761    -1.512249    -4.528833
 C     4.077067     0.506594    -4.193300
 H     4.785486     0.484049    -5.024367
