  74
scf done:    -2120.665869
 C     2.194847    -3.022007    -0.248188
 H     1.990848    -4.076462    -0.490591
 H     2.909493    -2.683041    -1.010668
 C     2.819276    -2.941384     1.137794
 H     2.134075    -3.306512     1.920235
 H     3.744633    -3.543708     1.217006
 H     3.097554    -1.908914     1.415747
Rh     0.444710    -1.844972    -0.127874
 C     1.678609     1.437288     0.410318
 C     3.386917    -0.092197    -1.347033
 C     0.667756     0.876301    -2.264161
 C    -2.218104     0.584489    -0.298050
 C    -2.886601    -1.870755     1.023112
 C    -0.980987     0.119028     2.313541
 P    -1.429738    -0.727114     0.713485
 P     1.589459     0.093518    -0.842992
 C    -0.454075    -3.391766    -0.521008
 O    -1.018509    -4.312288    -0.930523
 C     0.981559     2.648627     0.325898
 H     0.394635     2.889895    -0.559954
 C     2.407021     1.177531     1.582806
 H     2.945683     0.231917     1.686935
 C     0.996307     3.566443     1.376419
 H     0.449540     4.509492     1.316608
 C     2.442596     2.085936     2.633944
 H     3.006170     1.883885     3.546522
 C     1.726411     3.273221     2.519424
 F     1.742898     4.143307     3.526242
 H     3.765675    -0.776695    -0.568006
 C     3.501174    -0.820120    -2.684647
 H     4.525445    -1.202916    -2.816557
 H     2.810887    -1.672682    -2.753677
 H     3.293780    -0.144486    -3.527565
 C     4.242635     1.168700    -1.320011
 H     4.220022     1.670088    -0.342772
 H     5.291114     0.904000    -1.534503
 H     3.927820     1.898870    -2.078195
 H    -0.228761     1.255891    -1.745682
 C     1.349545     2.042555    -2.971835
 H     0.626034     2.543152    -3.635646
 H     1.745091     2.798483    -2.279168
 H     2.182318     1.700093    -3.602711
 C     0.177304    -0.174930    -3.256397
 H    -0.260567    -1.034945    -2.726921
 H    -0.585406     0.265798    -3.917751
 H     0.992725    -0.551353    -3.890185
 C    -2.737334     0.199461    -1.545179
 H    -2.701312    -0.851809    -1.843296
 C    -2.249094     1.942524     0.040085
 H    -1.850753     2.283805     0.995788
 C    -3.271176     1.131703    -2.426564
 H    -3.673670     0.837380    -3.397503
 C    -2.767533     2.892702    -0.839880
 H    -2.790091     3.954074    -0.585298
 C    -3.272083     2.475093    -2.063562
 F    -3.767115     3.376744    -2.907944
 H    -2.945681    -2.398093     0.054451
 C    -2.547782    -2.913446     2.083425
 H    -3.280356    -3.734929     2.051589
 H    -1.548450    -3.346404     1.928324
 H    -2.582400    -2.481839     3.095389
 C    -4.239126    -1.217174     1.279299
 H    -4.491595    -0.467705     0.516015
 H    -5.026883    -1.987911     1.262959
 H    -4.283593    -0.727967     2.261591
 H    -0.417339     0.994467     1.947638
 C    -2.121894     0.608146     3.197704
 H    -1.721246     1.252555     3.997140
 H    -2.876306     1.187521     2.647089
 H    -2.636723    -0.231543     3.687228
 C     0.008595    -0.738596     3.099543
 H     0.818445    -1.108728     2.451609
 H     0.457458    -0.146124     3.912465
 H    -0.478629    -1.615308     3.549975
