  76
scf done:    -2545.131492
 C     0.686860    -2.631679     2.634897
 H     0.524235    -3.701113     2.844470
 H     1.779614    -2.540329     2.507946
 C     0.243005    -1.804830     3.836408
 H    -0.834766    -1.920122     4.034341
 H     0.773427    -2.093416     4.763826
 H     0.425266    -0.726023     3.692157
Rh    -0.428115    -1.975372     0.943567
 C     2.367449     0.104517     1.576417
 C     2.811797    -2.254010    -0.086075
 C     1.660188     0.150709    -1.238031
 C    -1.899689    -1.576373    -2.332293
 C    -3.671958    -1.382693    -0.047770
 C    -1.932538     0.783782    -0.791937
 P    -1.912075    -1.053884    -0.573802
 P     1.556475    -0.927559     0.299225
 C    -1.544330    -3.389666     1.341583
 O    -2.156182    -4.346245     1.532609
 H     1.696598     0.939624     1.822476
 H     2.509902    -0.503483     2.479871
 H     3.327384     0.515880     1.237422
 H     2.903970    -2.839266     0.840647
 H     2.313897    -2.908975    -0.816658
 C     4.142442    -1.790536    -0.588784
 C     4.441155    -1.812534    -1.958044
 H     3.710597    -2.222571    -2.660773
 C     5.120388    -1.297315     0.287245
 H     4.929359    -1.298420     1.362661
 C     5.655556    -1.335735    -2.447541
 H     5.891668    -1.354864    -3.512930
 C     6.337184    -0.813042    -0.182663
 H     7.099850    -0.427111     0.496018
 C     6.587757    -0.831054    -1.550006
 F     7.749631    -0.368133    -2.006320
 H     2.233177    -0.414041    -1.986882
 H     0.637236     0.235910    -1.623203
 C     2.266059     1.507995    -1.042004
 C     1.506574     2.563980    -0.520302
 H     0.454457     2.409481    -0.269297
 C     3.617553     1.740558    -1.325119
 H     4.232057     0.930397    -1.723980
 C     2.071155     3.814769    -0.288625
 H     1.482178     4.637744     0.120217
 C     4.197907     2.986248    -1.099188
 H     5.250493     3.172900    -1.319623
 C     3.415215     4.010640    -0.581839
 F     3.963996     5.204653    -0.361939
 H    -2.030559    -2.667144    -2.375523
 H    -2.686491    -1.084857    -2.924408
 H    -0.916280    -1.340012    -2.764296
 H    -3.785310    -2.477594    -0.079295
 H    -3.705274    -1.097933     1.015064
 C    -4.745663    -0.694226    -0.828320
 C    -5.206965     0.573716    -0.446456
 H    -4.798736     1.045591     0.451444
 C    -5.296764    -1.277735    -1.976964
 H    -4.969363    -2.274544    -2.283806
 C    -6.174479     1.245782    -1.188008
 H    -6.539594     2.231068    -0.892499
 C    -6.266067    -0.620203    -2.730345
 H    -6.703261    -1.072615    -3.622259
 C    -6.690678     0.639506    -2.326863
 F    -7.616811     1.275738    -3.042027
 H    -1.060919     1.030792    -1.421512
 H    -2.813047     1.045208    -1.401290
 C    -1.902800     1.622978     0.459665
 C    -2.266338     2.975351     0.377264
 H    -2.608711     3.381768    -0.578542
 C    -1.481201     1.130535     1.700779
 H    -1.200153     0.068627     1.796512
 C    -2.193827     3.815387     1.484333
 H    -2.473163     4.868836     1.423746
 C    -1.404664     1.956378     2.820367
 H    -1.077012     1.569657     3.787227
 C    -1.757129     3.293189     2.697179
 F    -1.683819     4.091959     3.759647
