  74
scf done:    -1922.280772
 C     1.522101    -3.195343     0.034642
 H     1.177586    -4.172180    -0.338926
 H     2.456256    -2.991870    -0.506787
 C     1.787636    -3.299070     1.529998
 H     0.872124    -3.539362     2.094922
 H     2.528193    -4.085648     1.771773
 H     2.184233    -2.358945     1.953387
Rh     0.068832    -1.674131    -0.158305
 C     1.764338     1.243220     0.943011
 C     3.508299    -0.553968    -0.498361
 C     1.351626     1.012706    -1.936683
 C    -1.932671     1.271342    -0.742159
 C    -3.379026    -1.026248     0.177643
 C    -1.491658     0.464453     2.040487
 P    -1.693345    -0.209712     0.313571
 P     1.718060     0.000244    -0.412918
 C    -0.994622    -2.974255    -0.886324
 O    -1.612707    -3.735622    -1.496771
 C     1.364389     2.577966     0.805369
 C     2.121051     0.786481     2.222127
 C     1.662482     2.956801     3.176781
 C     2.076889     1.632120     3.325476
 C     1.309232     3.424563     1.913845
 H     1.070020     2.969415    -0.168203
 H     0.986126     4.460585     1.783602
 H     1.617384     3.620476     4.043339
 H     2.356484     1.251319     4.310719
 H     2.418636    -0.256664     2.359603
 H     3.537333    -1.330796     0.285425
 C     3.798021    -1.241891    -1.830514
 H     4.726022    -1.830335    -1.754490
 H     2.989547    -1.923497    -2.130282
 H     3.941349    -0.507908    -2.637141
 C     4.568151     0.489087    -0.164195
 H     4.404955     0.951726     0.818744
 H     5.560880     0.009742    -0.147089
 H     4.606150     1.293914    -0.911110
 H     0.452180     1.561777    -1.611462
 C     2.408965     2.025647    -2.362682
 H     1.986946     2.695515    -3.129482
 H     2.766542     2.651526    -1.533158
 H     3.283693     1.532448    -2.810838
 C     0.915972     0.127634    -3.101476
 H     0.195957    -0.632832    -2.762274
 H     0.442778     0.746026    -3.880566
 H     1.767296    -0.396263    -3.559004
 C    -2.203139     1.044358    -2.101458
 C    -1.768690     2.591935    -0.307424
 C    -2.126499     3.415415    -2.554186
 C    -1.858755     3.654024    -1.208567
 C    -2.306545     2.103519    -2.996767
 H    -2.308549     0.018622    -2.465622
 H    -2.515654     1.903616    -4.050463
 H    -2.196447     4.248071    -3.257920
 H    -1.719925     4.677450    -0.850801
 H    -1.550357     2.805126     0.739240
 H    -3.303174    -1.494693    -0.819550
 C    -3.525002    -2.152886     1.195154
 H    -4.375823    -2.797467     0.924425
 H    -2.624646    -2.783323     1.240527
 H    -3.719785    -1.758746     2.204259
 C    -4.594627    -0.107173     0.167454
 H    -4.497382     0.703640    -0.568193
 H    -5.492300    -0.690456    -0.095264
 H    -4.778407     0.347551     1.150176
 H    -0.692150     1.210643     1.893133
 C    -2.693494     1.157534     2.671103
 H    -2.381112     1.672059     3.594538
 H    -3.154427     1.905340     2.010550
 H    -3.471843     0.432812     2.951934
 C    -0.918947    -0.611124     2.961162
 H    -0.067143    -1.127031     2.491283
 H    -0.570471    -0.154438     3.901004
 H    -1.668449    -1.375133     3.213425
