 102
scf done:    -2538.752985
 C     1.079497    -2.282126    -2.234425
 H     0.848594    -2.359958    -3.309357
 H     2.148490    -2.026921    -2.204767
 C     0.803059    -3.620188    -1.563065
 H    -0.240423    -3.939128    -1.714053
 H     1.448539    -4.430733    -1.953688
 H     0.966809    -3.589751    -0.471226
Rh    -0.144571    -0.874033    -1.216515
 C     2.726438    -1.299483     0.980208
 C     3.038373     0.457577    -1.502691
 C     1.861562     1.560537     0.864500
 C    -1.706949     1.839993     0.444858
 C    -3.571721    -0.135261    -0.858621
 C    -2.212528    -0.929848     1.532855
 P    -1.942434     0.050477    -0.014764
 P     1.871005    -0.019740    -0.131042
 C    -1.182486    -1.056044    -2.707133
 O    -1.755868    -1.082352    -3.706424
 H     1.841726    -1.854733     1.343976
 C     3.505335    -0.868140     2.226077
 H     2.975878    -0.097942     2.797656
 H     4.463363    -0.420868     1.932430
 C     3.788718    -2.081719     3.107646
 H     4.330973    -1.767982     4.014558
 H     2.830998    -2.514082     3.452151
 C     4.584687    -3.137970     2.349673
 H     4.748616    -4.027552     2.979414
 H     5.586727    -2.731974     2.120287
 C     3.893575    -3.526028     1.048453
 H     2.956621    -4.065525     1.278124
 H     4.518165    -4.229076     0.473961
 C     3.557883    -2.312322     0.185140
 H     4.486889    -1.832634    -0.163615
 H     3.025651    -2.637028    -0.714494
 C     2.428258     0.532453    -2.763939
 H     1.366421     0.269831    -2.827887
 C     4.401155     0.822668    -1.389424
 C     5.157708     0.898749    -0.096371
 H     5.571301    -0.080734     0.189470
 H     4.528001     1.251778     0.729376
 H     6.005850     1.590639    -0.192832
 C     3.128427     0.907524    -3.905318
 H     2.613857     0.950026    -4.867824
 C     5.092784     1.181277    -2.554681
 H     6.147430     1.456908    -2.467070
 C     4.479712     1.218082    -3.802601
 H     5.055449     1.505496    -4.685898
 C     2.380145     2.722608     0.266729
 H     2.755888     2.675047    -0.755597
 C     1.333012     1.664809     2.171842
 C     0.648670     0.542867     2.896394
 H     1.074607     0.395381     3.900381
 H     0.703468    -0.407795     2.362340
 H    -0.421724     0.763251     3.033259
 C     2.440777     3.936623     0.941730
 H     2.859631     4.812305     0.440864
 C     1.410344     2.896576     2.837993
 H     1.013067     2.959982     3.855234
 C     1.964837     4.024426     2.246878
 H     2.012381     4.967339     2.796475
 H    -0.760818     1.750339     1.003684
 C    -2.688032     2.561271     1.367480
 H    -2.807055     1.990337     2.301214
 H    -3.687876     2.625364     0.906974
 C    -2.205892     3.975046     1.685054
 H    -2.943299     4.482869     2.328039
 H    -1.267617     3.915699     2.264647
 C    -1.951892     4.775465     0.414727
 H    -1.608612     5.792761     0.663906
 H    -2.901907     4.894658    -0.138838
 C    -0.927156     4.071806    -0.465276
 H     0.035912     4.039737     0.067700
 H    -0.752231     4.640679    -1.392919
 C    -1.349365     2.648840    -0.812486
 H    -2.199048     2.685938    -1.512672
 H    -0.543585     2.121230    -1.349878
 C    -4.302188     0.984699    -1.277547
 H    -3.924949     1.984766    -1.073232
 C    -4.082231    -1.426293    -1.137279
 C    -3.390911    -2.694848    -0.729689
 H    -3.581810    -2.935206     0.328365
 H    -2.298354    -2.619939    -0.847740
 H    -3.748221    -3.537788    -1.337388
 C    -5.514593     0.861511    -1.948513
 H    -6.056333     1.757425    -2.260377
 C    -5.303637    -1.525728    -1.815420
 H    -5.693977    -2.523124    -2.035729
 C    -6.022134    -0.405233    -2.218229
 H    -6.970477    -0.523441    -2.747672
 C    -1.194037    -1.857740     1.800958
 H    -0.361383    -1.918127     1.089988
 C    -3.353525    -0.914452     2.366035
 C    -4.605840    -0.137695     2.079047
 H    -5.280663    -0.740080     1.448405
 H    -4.427814     0.792213     1.535886
 H    -5.140679     0.096296     3.010891
 C    -1.231038    -2.705757     2.899990
 H    -0.417998    -3.414333     3.074922
 C    -3.363111    -1.761127     3.485965
 H    -4.235216    -1.739032     4.145522
 C    -2.321033    -2.638728     3.764565
 H    -2.373110    -3.285635     4.643762
