 102
scf done:    -2538.790900
 C     1.030936     1.734498     2.886245
 H     1.245539     1.317276     3.884937
 H     2.015708     1.964109     2.450615
 C     0.221880     3.014839     3.049566
 H    -0.723829     2.837881     3.585754
 H     0.779052     3.787205     3.613535
 H    -0.048231     3.470105     2.081151
Rh    -0.094525     0.423392     1.649117
 C     2.143138     1.624936    -0.925029
 C     3.264614    -0.362294     1.022315
 C     1.583133    -1.213860    -1.031644
 C    -1.883441    -1.867762    -0.737222
 C    -3.460446     0.036388     0.700115
 C    -1.564561     1.033251    -1.186697
 P    -1.729124    -0.230111     0.132638
 P     1.718606     0.174831     0.170511
 C    -0.956366    -0.000537     3.214559
 O    -1.348875    -0.378777     4.231875
 H     1.263153     1.652048    -1.596775
 C     3.408884     1.530769    -1.775734
 H     3.434537     0.591476    -2.349217
 H     4.286099     1.518977    -1.107463
 C     3.524535     2.725462    -2.718727
 H     4.442476     2.638765    -3.322829
 H     2.678313     2.710398    -3.429846
 C     3.512485     4.038904    -1.946647
 H     3.564970     4.895615    -2.638222
 H     4.416795     4.093149    -1.313808
 C     2.273130     4.138561    -1.066700
 H     1.380161     4.193394    -1.712924
 H     2.290179     5.067811    -0.474235
 C     2.129677     2.936331    -0.139178
 H     2.955929     2.932394     0.593657
 H     1.199240     3.010339     0.441140
 C     3.270110    -0.505823     2.411251
 H     2.364444    -0.263919     2.969574
 C     4.401990    -0.749263     0.297094
 H     4.386662    -0.719399    -0.793528
 C     4.408850    -0.984754     3.059501
 H     4.403570    -1.098153     4.146310
 C     5.551320    -1.222866     0.932233
 C     6.768445    -1.605887     0.140472
 H     6.534599    -1.715612    -0.928014
 H     7.556627    -0.840067     0.230761
 H     7.198183    -2.554861     0.495607
 C     5.541165    -1.328605     2.330044
 H     6.428530    -1.705565     2.846974
 C     1.334109    -1.041913    -2.397741
 H     1.235046    -0.043592    -2.823381
 C     1.702898    -2.515411    -0.527701
 H     1.901265    -2.655082     0.539130
 C     1.198657    -2.154591    -3.227629
 H     0.997368    -2.012973    -4.292567
 C     1.592808    -3.638918    -1.350221
 C     1.788496    -5.015363    -0.783997
 H     2.861901    -5.238440    -0.666964
 H     1.327340    -5.109534     0.210123
 H     1.358429    -5.788235    -1.436773
 C     1.326878    -3.441093    -2.711463
 H     1.225876    -4.306339    -3.372318
 H    -0.994782    -1.913128    -1.391276
 C    -3.147862    -2.042418    -1.578910
 H    -3.247700    -1.234777    -2.320549
 H    -4.028862    -1.958451    -0.920324
 C    -3.166104    -3.405398    -2.264585
 H    -4.086266    -3.513215    -2.861913
 H    -2.320703    -3.470252    -2.973801
 C    -3.055797    -4.531849    -1.243889
 H    -3.044355    -5.511819    -1.748462
 H    -3.953658    -4.522870    -0.599675
 C    -1.811062    -4.365208    -0.380445
 H    -0.918690    -4.478794    -1.017819
 H    -1.758446    -5.159438     0.382127
 C    -1.760750    -2.996547     0.290226
 H    -2.591294    -2.917822     1.014387
 H    -0.830468    -2.871697     0.866938
 C    -3.882832    -0.557539     1.894821
 H    -3.176601    -1.109457     2.516621
 C    -4.388502     0.755046    -0.062794
 H    -4.072149     1.215893    -1.001827
 C    -5.209393    -0.437789     2.302549
 H    -5.532249    -0.907333     3.234846
 C    -5.719083     0.897938     0.343013
 C    -6.687262     1.706602    -0.471368
 H    -6.808780     2.717815    -0.048377
 H    -6.341663     1.823360    -1.508379
 H    -7.684308     1.241820    -0.491588
 C    -6.119221     0.285267     1.536124
 H    -7.156744     0.379774     1.869073
 C    -1.376954     0.761796    -2.545376
 H    -1.389089    -0.264574    -2.912495
 C    -1.533500     2.366384    -0.750299
 H    -1.670433     2.574310     0.316657
 C    -1.151022     1.810613    -3.437419
 H    -0.994557     1.594791    -4.497419
 C    -1.329233     3.427824    -1.634866
 C    -1.340013     4.842928    -1.134712
 H    -2.369837     5.176323    -0.926626
 H    -0.773594     4.938732    -0.196208
 H    -0.907025     5.536653    -1.868956
 C    -1.127143     3.129006    -2.988977
 H    -0.950805     3.941836    -3.698837
