 110
scf done:    -2917.585900
 C    -0.618177     0.641167    -4.324885
 H    -0.045087     0.487015    -5.252844
 H    -1.470056    -0.051307    -4.405051
 C    -1.099405     2.085860    -4.285029
 H    -1.720603     2.347439    -5.163035
 H    -1.708861     2.308340    -3.392573
 H    -0.255190     2.794510    -4.268999
Rh     0.535153     0.268760    -2.585876
 C    -1.886830     0.747441     0.053126
 C    -3.024046    -0.330693    -2.310227
 C    -1.256844    -2.127314    -0.857072
 C     2.457310    -1.302693    -0.001181
 C     3.593324     1.076804    -1.142686
 C     1.407607     1.255512     0.731903
 P     1.944013     0.287228    -0.737745
 P    -1.412798    -0.325576    -1.362621
 C     1.920666     0.065630    -3.767663
 O     2.760762    -0.172923    -4.520885
 C    -2.198605     2.074900    -0.300980
 H    -2.114525     2.392839    -1.342989
 C    -1.960707     0.407470     1.404488
 H    -1.718526    -0.597207     1.741651
 C    -2.605287     3.004066     0.638788
 H    -2.839057     4.030402     0.353253
 C    -2.342711     1.343971     2.369787
 H    -2.375644     1.031559     3.413668
 C    -2.673615     2.646952     1.992464
 O    -3.045033     3.619999     2.850572
 C    -3.116032     3.318819     4.216204
 H    -2.135227     3.010514     4.619466
 H    -3.437368     4.236147     4.725569
 H    -3.850274     2.520122     4.421749
 H    -3.198113     0.716210    -2.601038
 H    -2.810886    -0.876268    -3.240272
 C    -4.214395    -0.920273    -1.620890
 C    -4.701719    -2.175147    -2.012686
 H    -4.227413    -2.701119    -2.845843
 C    -4.854089    -0.258888    -0.565652
 H    -4.495249     0.724592    -0.255506
 C    -5.783095    -2.752481    -1.351947
 H    -6.153081    -3.731233    -1.666670
 C    -5.930129    -0.831366     0.119307
 C    -6.567237    -0.095006     1.262148
 H    -5.803759     0.284197     1.959121
 H    -7.137059     0.777695     0.903506
 H    -7.259878    -0.738180     1.823295
 C    -6.388628    -2.089940    -0.285881
 H    -7.228932    -2.553066     0.238421
 H    -1.903067    -2.654263    -1.576318
 H    -0.220711    -2.381495    -1.113557
 C    -1.555139    -2.581924     0.542172
 C    -0.501389    -2.780958     1.443493
 H     0.527022    -2.635533     1.112547
 C    -2.864109    -2.795717     0.983060
 H    -3.692357    -2.658950     0.287209
 C    -0.763272    -3.141420     2.761850
 H     0.068512    -3.288247     3.455464
 C    -3.144392    -3.153556     2.306296
 C    -4.566963    -3.326410     2.753983
 H    -5.076543    -2.351365     2.822602
 H    -5.140344    -3.930965     2.035611
 H    -4.626291    -3.808805     3.739973
 C    -2.076579    -3.316455     3.195723
 H    -2.276889    -3.595030     4.234150
 C     2.885801    -1.462281     1.327229
 H     2.919522    -0.608207     2.005120
 C     2.451116    -2.427959    -0.830982
 H     2.110477    -2.315847    -1.865444
 C     3.272696    -2.704177     1.806726
 H     3.597287    -2.837346     2.840503
 C     2.847831    -3.681237    -0.366405
 H     2.821323    -4.534355    -1.044302
 C     3.257067    -3.826823     0.964888
 O     3.645030    -4.989078     1.518238
 C     3.620365    -6.152505     0.737046
 H     4.298696    -6.078216    -0.130861
 H     3.959615    -6.971678     1.383256
 H     2.602354    -6.379899     0.375570
 H     4.005683     0.475896    -1.966628
 H     3.351164     2.069677    -1.551191
 C     4.540518     1.162412     0.008409
 C     4.548274     2.279315     0.856483
 H     3.897500     3.129896     0.635173
 C     5.386221     0.089656     0.307022
 H     5.382940    -0.784364    -0.350989
 C     5.374257     2.301067     1.976211
 H     5.377718     3.176197     2.630870
 C     6.215560     0.091205     1.433578
 C     7.074355    -1.102004     1.736094
 H     6.452493    -1.995722     1.909507
 H     7.745417    -1.335948     0.894731
 H     7.693909    -0.940409     2.629325
 C     6.197390     1.213112     2.267689
 H     6.838766     1.236558     3.153025
 H     0.581058     0.683733     1.184994
 H     2.222694     1.277928     1.472258
 C     0.951235     2.665952     0.458633
 C     0.751645     3.176259    -0.828011
 H     0.918115     2.533966    -1.705499
 C     0.687255     3.498495     1.552638
 H     0.839553     3.105469     2.562935
 C     0.297569     4.482068    -1.004125
 H     0.147111     4.866171    -2.016204
 C     0.209050     4.800908     1.396595
 C    -0.154193     5.633583     2.591209
 H    -1.213706     5.473066     2.851352
 H     0.448571     5.364186     3.470972
 H    -0.017012     6.707108     2.395895
 C     0.024883     5.288157     0.096067
 H    -0.338425     6.309306    -0.050422
