  98
scf done:    -2760.437375
 C     0.779847    -3.048586    -2.744716
 H     0.238592    -3.559955    -3.555797
 H     1.719420    -2.699688    -3.199355
 C     1.036915    -4.035458    -1.615412
 H     1.631236    -4.908515    -1.947652
 H     1.577406    -3.584917    -0.764969
 H     0.097416    -4.427009    -1.196087
Rh    -0.360311    -1.509277    -1.873495
 C     1.882692    -0.603250     0.844584
 C     3.180534    -1.161738    -1.701024
 C     1.625448     1.291796    -1.418833
 C    -1.991230     1.406722    -0.303930
 C    -3.677238    -0.671127    -1.122287
 C    -1.897635    -1.076693     1.169616
 P    -1.906992    -0.406004    -0.553332
 P     1.584348    -0.525427    -0.960972
 C    -1.504437    -1.714854    -3.289188
 O    -2.155168    -1.728347    -4.242702
 C     2.594958    -1.669906     1.416253
 H     3.014241    -2.453653     0.782419
 C     1.308506     0.329173     1.714796
 H     0.726366     1.163750     1.320783
 C     2.771389    -1.770805     2.787657
 H     3.331531    -2.597877     3.227815
 C     1.469552     0.238237     3.097116
 H     1.016155     1.000482     3.730897
 C     2.218213    -0.809382     3.644908
 O     2.445361    -0.978415     4.961124
 C     1.902327    -0.054168     5.862261
 H     0.799038    -0.035501     5.815550
 H     2.208911    -0.375284     6.865675
 H     2.282246     0.966824     5.681830
 H     2.950800    -1.199182    -2.775432
 H     3.271997    -2.210431    -1.382929
 C     4.445014    -0.395709    -1.475690
 C     5.254549    -0.604627    -0.349927
 H     4.978402    -1.364239     0.382039
 C     4.848092     0.575815    -2.403460
 H     4.254361     0.730263    -3.308751
 C     6.401934     0.157440    -0.141464
 H     7.012442    -0.020570     0.747095
 C     5.991482     1.343040    -2.195223
 H     6.276788     2.100288    -2.929188
 C     6.770126     1.142700    -1.056871
 H     7.666312     1.744332    -0.889072
 H     0.607289     1.511771    -1.764288
 H     2.266171     1.320305    -2.314602
 C     2.056661     2.343698    -0.433055
 C     3.305879     2.340711     0.199664
 H     4.021471     1.547189    -0.007843
 C     1.162510     3.374098    -0.119419
 H     0.184268     3.388406    -0.599598
 C     3.640093     3.332551     1.118134
 H     4.620378     3.303508     1.600187
 C     1.490827     4.365287     0.802938
 H     0.762332     5.148155     1.030465
 C     2.735140     4.347088     1.429723
 H     2.999805     5.118791     2.156857
 C    -2.127928     2.045203     0.936657
 H    -2.137816     1.463207     1.859874
 C    -2.011817     2.198977    -1.456884
 H    -1.895211     1.722928    -2.436154
 C    -2.268651     3.422957     1.019513
 H    -2.364924     3.926048     1.983298
 C    -2.179734     3.581214    -1.392116
 H    -2.189740     4.161757    -2.314696
 C    -2.297928     4.204963    -0.142379
 O    -2.417966     5.533866     0.035707
 C    -2.418413     6.369531    -1.089550
 H    -3.265620     6.150806    -1.762842
 H    -2.517548     7.396891    -0.717630
 H    -1.477375     6.285411    -1.660914
 H    -3.769653    -1.739551    -1.363754
 H    -3.741012    -0.132698    -2.080220
 C    -4.733859    -0.220148    -0.165298
 C    -5.170706     1.112001    -0.146239
 H    -4.761256     1.821245    -0.869329
 C    -5.279724    -1.109319     0.771399
 H    -4.961661    -2.155442     0.770030
 C    -6.113784     1.541919     0.783641
 H    -6.438449     2.585286     0.779674
 C    -6.224062    -0.681145     1.702390
 H    -6.637411    -1.393567     2.420445
 C    -6.642333     0.648381     1.714332
 H    -7.383063     0.985913     2.443103
 H    -2.871595    -0.867134     1.644214
 H    -1.134698    -0.504077     1.715521
 C    -1.548857    -2.538620     1.250825
 C    -0.497985    -2.948931     2.077588
 H     0.065558    -2.197530     2.633479
 C    -2.250788    -3.521579     0.539614
 H    -3.065787    -3.238215    -0.127530
 C    -0.158290    -4.294640     2.197382
 H     0.672452    -4.583490     2.845929
 C    -1.919589    -4.868899     0.662855
 H    -2.480616    -5.615696     0.096096
 C    -0.870684    -5.262086     1.492727
 H    -0.606199    -6.318234     1.582520
