 110
scf done:    -2917.587871
 C     1.704396     1.661281     2.943341
 H     1.255165     1.665154     3.952197
 H     2.371972     0.782431     2.924638
 C     2.547187     2.914268     2.755037
 H     1.954073     3.834257     2.881710
 H     3.381152     2.965244     3.480010
 H     2.997846     2.958480     1.751873
Rh     0.100361     1.416620     1.548483
 C     3.181144     0.347384     0.405037
 C     1.834167    -1.794810     1.648215
 C     1.046274    -0.842083    -1.100564
 C    -2.334419    -0.405842    -0.361545
 C    -3.295262     1.884679     1.037667
 C    -1.802999     2.267671    -1.398653
 P    -1.762581     1.250115     0.157936
 P     1.472877    -0.280258     0.623033
 C    -0.586899     2.905960     2.380755
 O    -0.972727     3.862404     2.894035
 C     3.324655     1.520647    -0.351977
 H     2.433043     2.008305    -0.745660
 C     4.336155    -0.232545     0.929295
 H     4.285462    -1.137027     1.535998
 C     4.567843     2.066680    -0.613470
 H     4.676914     2.974413    -1.209946
 C     5.598987     0.315015     0.689660
 H     6.475209    -0.169367     1.120819
 C     5.724274     1.465869    -0.094104
 O     6.892865     2.063985    -0.390251
 C     8.078575     1.517031     0.115301
 H     8.243670     0.487581    -0.249046
 H     8.896930     2.154942    -0.241565
 H     8.088265     1.508566     1.219437
 H     2.591461    -2.354467     1.079102
 H     2.337405    -1.366190     2.530955
 C     0.770503    -2.754494     2.103388
 C     0.754362    -4.041972     1.552849
 H     1.473498    -4.286748     0.769229
 C    -0.126715    -2.449156     3.151451
 C    -0.108050    -1.121216     3.838036
 H    -0.305656    -0.276737     3.139841
 H     0.879575    -0.905379     4.275580
 H    -0.853483    -1.077933     4.643499
 C    -0.140946    -5.015094     1.987893
 H    -0.117046    -6.013771     1.544755
 C    -1.032222    -3.434645     3.565851
 H    -1.729173    -3.195101     4.373484
 C    -1.049136    -4.706448     2.997675
 H    -1.758788    -5.456110     3.356580
 H    -0.050301    -0.876953    -1.113634
 H     1.325285     0.022271    -1.722524
 C     1.582840    -2.129676    -1.651263
 C     0.759317    -3.261324    -1.562582
 H    -0.220544    -3.155149    -1.091016
 C     2.828731    -2.243243    -2.306237
 C     3.734748    -1.069568    -2.540770
 H     4.364478    -0.852537    -1.665207
 H     3.169480    -0.152328    -2.757283
 H     4.403534    -1.265687    -3.390881
 C     1.154784    -4.498991    -2.057647
 H     0.486440    -5.359734    -1.973992
 C     3.213074    -3.500490    -2.792785
 H     4.176177    -3.589258    -3.303512
 C     2.401196    -4.623501    -2.666361
 H     2.732682    -5.585965    -3.063645
 C    -3.061260    -0.696678    -1.526387
 H    -3.332126     0.096404    -2.224414
 C    -2.085006    -1.451312     0.529414
 H    -1.529704    -1.246991     1.446631
 C    -3.474522    -1.990354    -1.806427
 H    -4.028989    -2.222970    -2.717302
 C    -2.508922    -2.752637     0.276671
 H    -2.273068    -3.530590     1.001521
 C    -3.194455    -3.032979    -0.911050
 O    -3.609949    -4.261004    -1.268374
 C    -3.313214    -5.338502    -0.421627
 H    -3.788153    -5.225518     0.568642
 H    -3.710036    -6.238527    -0.907640
 H    -2.225246    -5.454341    -0.274103
 H    -3.337786     1.263737     1.946195
 H    -3.049508     2.902790     1.370399
 C    -4.591498     1.830086     0.289137
 C    -5.283745     0.613609     0.210729
 H    -4.877260    -0.258550     0.727888
 C    -5.137279     2.968433    -0.344507
 C    -4.508567     4.328172    -0.219646
 H    -3.512792     4.377459    -0.684341
 H    -4.383018     4.620541     0.835182
 H    -5.133349     5.091171    -0.703475
 C    -6.466904     0.492564    -0.511025
 H    -6.979451    -0.470966    -0.558766
 C    -6.326755     2.827592    -1.069152
 H    -6.750256     3.708798    -1.559098
 C    -6.986245     1.605090    -1.166979
 H    -7.912859     1.528493    -1.740857
 H    -2.767177     2.103627    -1.903950
 H    -1.812610     3.301868    -1.028433
 C    -0.650626     2.070455    -2.340372
 C    -0.727661     1.113751    -3.359822
 H    -1.629811     0.508228    -3.456986
 C     0.516710     2.856952    -2.226795
 C     0.661262     3.888368    -1.147350
 H     0.609482     3.414422    -0.147335
 H    -0.138891     4.645281    -1.190159
 H     1.621431     4.416013    -1.227667
 C     0.323824     0.905648    -4.247569
 H     0.239612     0.141106    -5.022874
 C     1.557737     2.646956    -3.139429
 H     2.459216     3.260556    -3.058047
 C     1.476516     1.678354    -4.136939
 H     2.309729     1.534171    -4.828552
