  86
scf done:    -1929.540612
 C    -1.504482    -0.738608     2.671829
 H    -1.201868    -0.277096     3.627381
 H    -2.450877    -0.244874     2.398585
 C    -1.762728    -2.224966     2.888091
 H    -0.877356    -2.741218     3.292722
 H    -2.595322    -2.406753     3.594643
 H    -2.026228    -2.744385     1.951258
Rh    -0.023070    -0.503272     1.160738
 C    -2.780119     0.197879    -1.006750
 C    -2.419192     2.098796     1.169325
 C    -0.723763     2.165811    -1.164954
 C     2.740983     0.590239    -0.864328
 C     2.682506    -2.210543    -0.160422
 C     0.914693    -1.183415    -2.222221
 P     1.546930    -0.795598    -0.525814
 P    -1.459263     0.979064     0.051453
 C     1.168653    -1.015359     2.469094
 O     1.935679    -1.184050     3.314679
 H    -2.211323    -0.140129    -1.893973
 C    -3.900947     1.118291    -1.490733
 H    -3.494640     2.008794    -1.996451
 H    -4.471786     1.485474    -0.620219
 C    -4.851192     0.377164    -2.428998
 H    -5.662323     1.049547    -2.752851
 H    -4.302015     0.088732    -3.343816
 C    -5.424467    -0.873031    -1.771291
 H    -6.077612    -1.412840    -2.475954
 H    -6.065069    -0.572121    -0.922478
 C    -4.316892    -1.787434    -1.260343
 H    -3.746613    -2.184213    -2.119898
 H    -4.744544    -2.660452    -0.741638
 C    -3.361021    -1.045999    -0.332402
 H    -3.898386    -0.747321     0.585266
 H    -2.544718    -1.705059     0.003593
 H    -2.850298     2.916493     0.566715
 H    -3.271059     1.502840     1.537583
 C    -1.636678     2.642537     2.360171
 H    -0.873688     3.356773     2.013115
 H    -1.076853     1.813511     2.819823
 C    -2.534928     3.311585     3.388085
 H    -3.099706     4.151617     2.951337
 H    -3.267301     2.596418     3.796063
 H    -1.951317     3.706636     4.233493
 H    -0.178351     1.548713    -1.898414
 H    -1.540936     2.656991    -1.719670
 C     0.206189     3.219661    -0.578570
 H     0.933743     2.736522     0.094525
 H    -0.375855     3.907009     0.055476
 C     0.929244     4.022484    -1.649199
 H     1.560494     3.375673    -2.280173
 H     0.216345     4.534012    -2.315541
 H     1.581793     4.789839    -1.205603
 H     2.095947     1.368863    -1.309762
 C     3.871814     0.299895    -1.851371
 H     3.472469    -0.072687    -2.808181
 H     4.516446    -0.499278    -1.446068
 C     4.722851     1.545135    -2.091742
 H     5.545030     1.312026    -2.787918
 H     4.104211     2.314878    -2.588358
 C     5.271846     2.107862    -0.785605
 H     5.855507     3.022960    -0.976763
 H     5.975012     1.377309    -0.345854
 C     4.152813     2.386195     0.211683
 H     3.514947     3.200653    -0.176629
 H     4.567318     2.746076     1.167084
 C     3.291139     1.150746     0.449660
 H     3.898092     0.376496     0.952941
 H     2.455891     1.371239     1.133985
 H     3.347185    -2.389669    -1.021981
 H     3.322290    -1.849874     0.663861
 C     1.997911    -3.504402     0.270021
 H     1.531384    -3.986897    -0.604061
 H     1.170574    -3.261289     0.958607
 C     2.957619    -4.476514     0.937745
 H     3.801548    -4.732210     0.276443
 H     3.376625    -4.041492     1.859193
 H     2.452353    -5.414897     1.212531
 H     0.543895    -0.228131    -2.633268
 H     1.751700    -1.494822    -2.869636
 C    -0.203270    -2.219409    -2.254671
 H    -0.929891    -1.988075    -1.458378
 H     0.203095    -3.210022    -1.998403
 C    -0.905131    -2.291234    -3.601442
 H    -1.377598    -1.328558    -3.858057
 H    -0.199255    -2.535492    -4.411468
 H    -1.694094    -3.058773    -3.603935
