 114
scf done:    -2695.920034
 C     0.926584    -0.378374    -3.671445
 H     1.212809     0.491562    -4.289073
 H     1.880144    -0.844406    -3.378298
 C     0.138181    -1.369801    -4.518232
 H    -0.764416    -0.913095    -4.954493
 H     0.736360    -1.773290    -5.357274
 H    -0.205555    -2.236590    -3.928882
Rh    -0.202321     0.257270    -1.980831
 C     2.273605    -1.995412    -0.473619
 C     3.177223     0.593265    -1.570284
 C     1.663452     0.435716     1.055700
 C    -1.430392     2.372387     0.587977
 C    -3.453760     0.806245    -1.036423
 C    -1.992108    -0.412239     1.123586
 P    -1.732439     0.747175    -0.292529
 P     1.720237    -0.229420    -0.704737
 C    -1.161918     1.211769    -3.226575
 O    -1.639954     1.920194    -4.001437
 H     1.648395    -2.318861     0.375142
 C     3.737014    -2.206632    -0.077693
 H     4.035206    -1.538476     0.741228
 H     4.383151    -1.965302    -0.940394
 C     3.972980    -3.662240     0.316900
 H     5.030647    -3.810275     0.589066
 H     3.386965    -3.880614     1.227683
 C     3.569203    -4.619458    -0.799167
 H     3.692018    -5.665248    -0.473390
 H     4.253258    -4.479853    -1.656022
 C     2.137792    -4.370139    -1.263078
 H     1.435210    -4.635966    -0.452457
 H     1.891070    -5.024215    -2.115452
 C     1.916142    -2.910092    -1.645059
 H     2.543848    -2.660104    -2.517908
 H     0.877185    -2.740456    -1.960612
 H     3.847712    -0.214424    -1.892029
 H     2.731034     1.014324    -2.480588
 C     3.956250     1.637884    -0.837407
 C     5.248924     1.360069    -0.380547
 H     5.669635     0.367183    -0.558607
 C     3.409173     2.921413    -0.624463
 C     2.079985     3.301966    -1.209108
 H     1.314378     2.510896    -1.123195
 H     2.176547     3.491575    -2.291883
 H     1.689865     4.219989    -0.748387
 C     5.995396     2.312803     0.307547
 H     7.002467     2.071788     0.655596
 C     4.160453     3.858502     0.093815
 H     3.734187     4.849399     0.274064
 C     5.440123     3.564556     0.561856
 H     6.005350     4.318574     1.114672
 H     1.832315     1.517835     0.953269
 H     0.608774     0.315867     1.328765
 C     2.550714    -0.115783     2.134608
 C     3.762154     0.530421     2.411242
 H     4.004812     1.445564     1.871063
 C     2.198823    -1.255397     2.891586
 C     0.847415    -1.909216     2.808043
 H     0.424935    -1.948250     1.796632
 H     0.119561    -1.365891     3.435771
 H     0.884064    -2.941031     3.184258
 C     4.662197     0.028927     3.345005
 H     5.604383     0.551805     3.525330
 C     3.122905    -1.753940     3.818472
 H     2.859581    -2.648230     4.390357
 C     4.351505    -1.138059     4.038228
 H     5.051775    -1.557351     4.764548
 H    -0.327288     2.370748     0.643417
 C    -1.944134     2.549452     2.018521
 H    -1.582882     1.731896     2.660309
 H    -3.043555     2.494926     2.042792
 C    -1.485341     3.884679     2.600364
 H    -1.892725     4.009094     3.616769
 H    -0.385175     3.871542     2.706709
 C    -1.885842     5.057937     1.714415
 H    -1.526385     6.006073     2.145820
 H    -2.988514     5.130431     1.682092
 C    -1.353253     4.880062     0.298098
 H    -0.249346     4.907566     0.319688
 H    -1.672300     5.714857    -0.346370
 C    -1.808024     3.555661    -0.305889
 H    -2.903269     3.588743    -0.440542
 H    -1.374023     3.419174    -1.309973
 H    -3.511618     1.774361    -1.557958
 H    -3.410999     0.046846    -1.827825
 C    -4.635933     0.592505    -0.138891
 C    -5.082568     1.631800     0.686886
 H    -4.598611     2.607839     0.610939
 C    -5.314261    -0.646525    -0.099208
 C    -4.991569    -1.764717    -1.048803
 H    -3.943773    -2.087669    -0.982523
 H    -5.174379    -1.460208    -2.092381
 H    -5.620859    -2.641089    -0.843577
 C    -6.126478     1.457478     1.590258
 H    -6.447275     2.288176     2.223242
 C    -6.358021    -0.808254     0.821124
 H    -6.876368    -1.770347     0.858233
 C    -6.757598     0.218843     1.671858
 H    -7.574313     0.057608     2.379430
 H    -1.165729    -0.246600     1.834331
 H    -2.897554    -0.074275     1.647813
 C    -2.090366    -1.881054     0.810554
 C    -1.519667    -2.433312    -0.340746
 H    -1.026474    -1.763940    -1.062524
 C    -2.756550    -2.730477     1.720964
 C    -3.393601    -2.185938     2.965920
 H    -4.203897    -1.477839     2.723950
 H    -2.667966    -1.643870     3.593464
 H    -3.824915    -2.993603     3.572973
 C    -1.594661    -3.798880    -0.606496
 H    -1.146665    -4.199722    -1.518693
 C    -2.824959    -4.098301     1.438538
 H    -3.344157    -4.755335     2.141852
 C    -2.251593    -4.637556     0.288552
 H    -2.323113    -5.710143     0.093041
