 110
scf done:    -2617.790380
 C    -1.257272     1.398243    -3.361389
 H    -0.937972     1.247046    -4.404274
 H    -2.305890     1.071918    -3.328880
 C    -1.152251     2.877167    -3.015687
 H    -0.114433     3.242459    -3.083147
 H    -1.759303     3.511006    -3.690747
 H    -1.498318     3.095722    -1.989461
Rh    -0.008187     0.432964    -1.959872
 C    -1.629643     1.044852     1.141019
 C    -3.500176     0.644408    -1.004945
 C    -1.874180    -1.655637     0.087650
 C     1.637969    -1.356783     0.746276
 C     3.353996    -0.272416    -1.262097
 C     1.896831     1.546202     0.680622
 P     1.714231     0.056733    -0.417910
 P    -1.791618     0.126939    -0.440362
 C     0.950792    -0.151951    -3.403752
 O     1.468793    -0.670632    -4.298034
 C    -1.736181     2.447663     1.101444
 H    -1.978019     2.946777     0.159045
 C    -1.306518     0.459087     2.365339
 H    -1.213299    -0.623401     2.451447
 C    -1.525635     3.222079     2.228723
 H    -1.613986     4.309516     2.195903
 C    -1.060615     1.228392     3.506519
 H    -0.793899     0.724597     4.436158
 C    -1.161869     2.619830     3.443046
 O    -0.922489     3.453847     4.473432
 C    -0.510162     2.910629     5.696154
 H     0.438093     2.352751     5.596379
 H    -0.354879     3.754578     6.379915
 H    -1.273631     2.238828     6.126557
 H    -3.282278     1.599640    -1.518729
 C    -4.556444     0.937649     0.063268
 H    -4.161015     1.616209     0.832577
 H    -4.830846     0.006789     0.585133
 C    -5.803029     1.545828    -0.576113
 H    -6.566258     1.736991     0.195980
 H    -5.541105     2.530835    -1.003626
 C    -6.370742     0.656832    -1.677141
 H    -7.238061     1.141499    -2.154328
 H    -6.748247    -0.278899    -1.225504
 C    -5.310895     0.312621    -2.717608
 H    -5.013933     1.227147    -3.262003
 H    -5.720947    -0.378257    -3.472089
 C    -4.074793    -0.299098    -2.066503
 H    -4.360546    -1.251747    -1.589467
 H    -3.314238    -0.543017    -2.823210
 H    -0.956642    -1.759727     0.695846
 C    -1.708979    -2.609102    -1.102001
 H    -0.813663    -2.315013    -1.673970
 H    -2.560048    -2.495888    -1.791733
 C    -1.626436    -4.062387    -0.646310
 H    -1.569804    -4.724859    -1.525558
 H    -0.690171    -4.204240    -0.083320
 C    -2.796273    -4.457341     0.247188
 H    -2.677875    -5.495905     0.598771
 H    -3.733601    -4.433866    -0.338302
 C    -2.926336    -3.504305     1.429688
 H    -2.029656    -3.590028     2.071288
 H    -3.788832    -3.780816     2.058034
 C    -3.068708    -2.061475     0.953187
 H    -3.994506    -1.978378     0.360504
 H    -3.189860    -1.381092     1.809550
 C     1.455413    -1.240100     2.131988
 H     1.415848    -0.256377     2.600283
 C     1.686745    -2.647571     0.206667
 H     1.811452    -2.778074    -0.872114
 C     1.294067    -2.361581     2.935160
 H     1.134480    -2.269478     4.011417
 C     1.557806    -3.782826     1.002693
 H     1.609784    -4.767279     0.537676
 C     1.334102    -3.645351     2.378222
 O     1.143153    -4.675296     3.225277
 C     1.117500    -5.976686     2.707698
 H     2.081320    -6.256141     2.247035
 H     0.922361    -6.647954     3.553411
 H     0.315625    -6.102850     1.958653
 H     3.062049    -1.063689    -1.978413
 C     4.509100    -0.831003    -0.429399
 H     4.175837    -1.685676     0.177787
 H     4.868763    -0.067384     0.278085
 C     5.660320    -1.250081    -1.341942
 H     6.497680    -1.636898    -0.738244
 H     5.325040    -2.087493    -1.980577
 C     6.129069    -0.100241    -2.227448
 H     6.927075    -0.439644    -2.907800
 H     6.577879     0.683762    -1.590181
 C     4.973904     0.503775    -3.018654
 H     4.595660    -0.233066    -3.749338
 H     5.319886     1.371515    -3.603446
 C     3.827086     0.915974    -2.101759
 H     4.174466     1.720144    -1.429808
 H     2.991169     1.330508    -2.686599
 H     1.040241     1.438175     1.371962
 C     1.651648     2.838203    -0.108836
 H     0.698001     2.756714    -0.656927
 H     2.432075     2.957937    -0.877815
 C     1.648604     4.060859     0.802895
 H     1.528639     4.975089     0.199070
 H     0.771152     4.005800     1.467453
 C     2.906433     4.145538     1.659128
 H     2.847923     5.009980     2.340393
 H     3.785138     4.318406     1.011057
 C     3.118152     2.857502     2.445964
 H     2.284849     2.725582     3.161126
 H     4.041356     2.915534     3.045591
 C     3.175707     1.652363     1.511770
 H     4.037111     1.775913     0.834642
 H     3.359730     0.727392     2.079459
