  98
scf done:    -2236.551922
 C     0.403715     3.173368     0.252146
 H     0.916618     3.933214    -0.357712
 H    -0.650821     3.485121     0.280027
 C     0.998398     3.167868     1.653988
 H     2.063628     2.883439     1.646437
 H     0.937321     4.159783     2.141957
 H     0.489775     2.453922     2.325342
Rh     0.699679     1.209364    -0.463610
 C    -1.310168    -0.503039     2.026107
 C    -2.548553     1.823230     0.919548
 C    -2.277493    -0.549906    -0.685408
 C     0.587538    -2.207018    -1.669754
 C     3.132312    -0.998861    -1.731877
 C     1.971112    -1.703030     0.840430
 P     1.549800    -0.924009    -0.777432
 P    -1.328254     0.505822     0.486939
 C     1.645131     1.953174    -1.848122
 O     2.119343     2.393964    -2.804112
 C    -1.368239    -1.903711     1.993248
 C    -1.166116     0.127177     3.270403
 C    -1.161752    -2.009342     4.400278
 C    -1.093974    -0.617310     4.445624
 C    -1.297292    -2.649005     3.169427
 H    -1.472776    -2.426390     1.039565
 H    -1.350546    -3.739498     3.121389
 H    -1.106037    -2.593518     5.321678
 H    -0.981969    -0.104766     5.404117
 H    -1.108942     1.216790     3.327234
 H    -3.381938     1.376630     1.485596
 H    -2.035173     2.522341     1.599071
 C    -3.046085     2.572371    -0.311276
 H    -2.191271     2.789762    -0.975256
 H    -3.722715     1.923656    -0.893303
 C    -3.766981     3.867688     0.032982
 H    -3.077505     4.525090     0.593454
 H    -4.604945     3.653299     0.721529
 C    -4.290114     4.611170    -1.187776
 H    -3.447331     4.814410    -1.871584
 H    -4.975834     3.950412    -1.747721
 C    -4.998244     5.911828    -0.845305
 H    -5.363694     6.426060    -1.747108
 H    -4.324145     6.605480    -0.317455
 H    -5.865580     5.734437    -0.188867
 H    -2.275325     0.004957    -1.637545
 H    -1.650181    -1.431521    -0.881682
 C    -3.686254    -0.972466    -0.295288
 H    -3.688296    -1.397219     0.722844
 H    -4.350529    -0.092842    -0.254250
 C    -4.260342    -1.994712    -1.267908
 H    -3.587617    -2.871053    -1.309077
 H    -4.252034    -1.572215    -2.289241
 C    -5.669190    -2.451200    -0.918073
 H    -5.670548    -2.865252     0.105937
 H    -6.337818    -1.572726    -0.884104
 C    -6.225490    -3.481152    -1.887916
 H    -7.242854    -3.795915    -1.610247
 H    -5.593695    -4.383729    -1.916190
 H    -6.269448    -3.080587    -2.913582
 C     0.318558    -3.485760    -1.168384
 C     0.038741    -1.837514    -2.907221
 C    -1.040294    -3.988628    -3.105279
 C    -0.760247    -2.722823    -3.623390
 C    -0.498569    -4.367065    -1.878818
 H     0.739717    -3.803493    -0.212354
 H    -0.708782    -5.358686    -1.470223
 H    -1.682214    -4.678502    -3.658103
 H    -1.183406    -2.417877    -4.583490
 H     0.215279    -0.827054    -3.288659
 H     3.427488    -2.055341    -1.847387
 H     2.883490    -0.624388    -2.739413
 C     4.258506    -0.170453    -1.129096
 H     3.857322     0.800295    -0.788223
 H     4.644944    -0.673683    -0.225952
 C     5.403796     0.074435    -2.101194
 H     5.012298     0.610065    -2.984771
 H     5.785764    -0.892483    -2.477266
 C     6.549538     0.872528    -1.495110
 H     6.155800     1.831485    -1.114673
 H     6.936731     0.336565    -0.610115
 C     7.684325     1.136209    -2.471455
 H     8.495870     1.715527    -2.005535
 H     7.331625     1.703320    -3.347835
 H     8.119024     0.194292    -2.843576
 H     1.055044    -2.200495     1.194977
 H     2.735925    -2.486730     0.702965
 C     2.388347    -0.675452     1.887460
 H     3.356593    -0.221334     1.620249
 H     1.659732     0.155003     1.868241
 C     2.451131    -1.250981     3.293454
 H     3.221164    -2.043143     3.342230
 H     1.490150    -1.745245     3.518627
 C     2.727791    -0.200421     4.358935
 H     3.691211     0.295677     4.145497
 H     1.961572     0.591001     4.281031
 C     2.738131    -0.764792     5.769973
 H     2.933991     0.015534     6.521157
 H     3.512618    -1.540187     5.886412
 H     1.769745    -1.230397     6.015577
