  98
scf done:    -2609.102701
 C    -1.662477     0.631867    -2.762603
 H    -1.060877     0.427312    -3.666573
 H    -2.152727    -0.325750    -2.518116
 C    -2.739941     1.659763    -3.081181
 H    -2.317394     2.613642    -3.435366
 H    -3.433045     1.300774    -3.864970
 H    -3.358851     1.893328    -2.200371
Rh    -0.249411     1.215561    -1.261722
 C    -3.034967    -0.428307     0.141064
 O    -1.122205    -1.972457    -0.712600
 O    -0.659749    -0.633156     1.455637
 C     2.480298     0.279142     0.707306
 O     2.468938     2.725420    -0.473159
 O     1.197153     2.304554     1.706609
 P     1.408599     1.656841     0.204066
 P    -1.235261    -0.463304    -0.074322
 C     0.266238     2.583125    -2.437092
 O     0.550040     3.423884    -3.160422
 C    -3.819360    -1.592489     0.177043
 H    -3.343510    -2.564542     0.033553
 C    -3.666204     0.808482     0.280553
 H    -3.072451     1.723759     0.213242
 C    -5.187917    -1.514265     0.375100
 H    -5.811552    -2.409692     0.404041
 C    -5.041727     0.901235     0.482241
 H    -5.500855     1.884583     0.582279
 C    -5.811463    -0.266747     0.535337
 O    -7.142343    -0.289560     0.723538
 C    -7.826493     0.923675     0.876393
 H    -7.727253     1.565173    -0.016620
 H    -8.885081     0.671686     1.016669
 H    -7.472824     1.484989     1.759005
 C     0.023328    -2.347735    -1.465740
 H     0.341771    -1.486526    -2.082875
 H     0.850001    -2.593508    -0.777315
 C    -0.326166    -3.537755    -2.329083
 H     0.593313    -3.854955    -2.852378
 H    -0.613690    -4.380468    -1.674934
 C    -1.433743    -3.262830    -3.335981
 H    -1.135635    -2.416193    -3.978205
 H    -2.328239    -2.919258    -2.791402
 C    -1.777278    -4.471020    -4.190896
 H    -0.905943    -4.815460    -4.771589
 H    -2.112638    -5.318175    -3.570567
 H    -2.582893    -4.244328    -4.905401
 C    -1.145220    -1.563470     2.414666
 H    -0.866754    -1.140357     3.393051
 H    -2.247211    -1.604855     2.375441
 C    -0.543834    -2.947356     2.251077
 H    -0.947814    -3.585406     3.057249
 H    -0.894245    -3.383198     1.301474
 C     0.976211    -2.942680     2.290385
 H     1.313789    -2.561671     3.269958
 H     1.343680    -2.211741     1.554059
 C     1.603938    -4.299026     2.021550
 H     1.268442    -5.056726     2.748369
 H     1.337735    -4.668702     1.017179
 H     2.701609    -4.243462     2.080035
 C     2.962087     0.100501     2.011059
 H     2.636416     0.785354     2.795826
 C     2.888949    -0.607567    -0.289955
 H     2.515296    -0.472857    -1.309443
 C     3.837269    -0.934664     2.300643
 H     4.217551    -1.094262     3.311418
 C     3.767726    -1.653073    -0.012538
 H     4.066039    -2.329653    -0.813451
 C     4.245873    -1.821235     1.293144
 O     5.077372    -2.810482     1.672778
 C     5.535737    -3.715985     0.706335
 H     6.097792    -3.207272    -0.096281
 H     6.206211    -4.414047     1.222949
 H     4.705175    -4.287004     0.255279
 C     3.663797     3.165868     0.157599
 H     3.805071     4.205423    -0.180925
 H     3.527328     3.190504     1.252322
 C     4.876067     2.327637    -0.212575
 H     5.767046     2.837121     0.196168
 H     4.824602     1.352572     0.297284
 C     5.040474     2.105309    -1.708415
 H     5.167263     3.077887    -2.216226
 H     4.102585     1.683987    -2.105272
 C     6.202386     1.184612    -2.042103
 H     7.159163     1.589854    -1.674174
 H     6.064222     0.195382    -1.575228
 H     6.301739     1.031669    -3.127603
 C     0.278384     3.376744     1.871130
 H     0.701770     4.021888     2.658686
 H     0.222035     3.975275     0.945114
 C    -1.094954     2.876140     2.260393
 H    -1.768966     3.746542     2.352013
 H    -1.475663     2.269683     1.422549
 C    -1.113407     2.049023     3.535782
 H    -0.729249     2.657340     4.374494
 H    -0.406767     1.213573     3.409447
 C    -2.495122     1.513412     3.873088
 H    -3.218130     2.331176     4.027197
 H    -2.885357     0.883605     3.058309
 H    -2.483162     0.905091     4.790581
