  90
scf done:    -2531.534649
 C     1.410020    -2.736235    -1.291295
 H     1.339777    -3.033423    -2.350550
 H     2.460371    -2.437181    -1.146965
 C     1.088959    -3.921499    -0.394362
 H     0.073293    -4.309451    -0.573088
 H     1.792946    -4.759434    -0.557102
 H     1.157215    -3.659697     0.674170
Rh     0.025558    -1.202394    -0.789099
 C     2.871852    -1.212686     1.165988
 C     3.131476     0.311564    -1.310134
 C     1.773143     1.483888     0.937309
 C    -2.146027     1.624983    -0.984805
 C    -3.343937    -0.975872    -0.460346
 C    -2.124742     0.494295     1.678956
 P    -1.857088     0.050971    -0.091049
 P     1.934859    -0.110738     0.029574
 C    -0.956035    -1.919905    -2.178054
 O    -1.461089    -2.292583    -3.143589
 C     2.204271    -1.741593     2.280892
 C     4.171011    -1.654632     0.892862
 C     4.139966    -3.063645     2.858044
 C     4.798358    -2.574472     1.732487
 C     2.837654    -2.645339     3.129321
 H     1.166336    -1.463917     2.478300
 H     2.301544    -3.040287     3.995468
 H     4.634400    -3.782672     3.515372
 H     5.810711    -2.912689     1.499045
 H     4.693998    -1.288580     0.006856
 C     2.781373    -0.099470    -2.602930
 H     1.844328    -0.650073    -2.726354
 C     4.313103     1.063377    -1.112217
 C     4.753671     1.614920     0.213778
 H     4.575325     0.921738     1.044931
 H     4.208138     2.541205     0.453826
 H     5.826393     1.853421     0.189458
 C     3.580066     0.198474    -3.701208
 H     3.282749    -0.134750    -4.697997
 C     5.105373     1.343626    -2.234457
 H     6.025297     1.917295    -2.091364
 C     4.753840     0.922499    -3.513136
 H     5.398216     1.164861    -4.361897
 C     2.072968     1.589050     2.300541
 H     2.506911     0.735193     2.825185
 C     1.248459     2.599882     0.248720
 C     1.003418     2.586604    -1.229405
 H     0.588767     1.623457    -1.564717
 H     1.946001     2.736094    -1.780212
 H     0.305043     3.381977    -1.520458
 C     1.827714     2.764747     3.002222
 H     2.065206     2.823229     4.066996
 C     0.998710     3.768700     0.978545
 H     0.576530     4.629294     0.452430
 C     1.274965     3.857841     2.339613
 H     1.064776     4.783600     2.880534
 C    -2.098906     1.614106    -2.387488
 C    -2.291242     2.847965    -0.321692
 C    -2.395761     4.011226    -2.439326
 C    -2.415814     4.033387    -1.046551
 C    -2.235439     2.796374    -3.108258
 H    -1.938924     0.671679    -2.917645
 H    -2.202844     2.770785    -4.199987
 H    -2.495414     4.940315    -3.005545
 H    -2.527153     4.981203    -0.514069
 H    -2.292138     2.878116     0.769935
 C    -4.313464    -0.579579    -1.386527
 H    -4.232782     0.394489    -1.872252
 C    -3.457057    -2.232941     0.176252
 C    -2.440191    -2.720537     1.163965
 H    -2.501136    -2.170683     2.116407
 H    -1.415469    -2.569913     0.769752
 H    -2.575884    -3.790109     1.374302
 C    -5.395072    -1.400776    -1.691680
 H    -6.139511    -1.070699    -2.419854
 C    -4.555920    -3.038603    -0.141745
 H    -4.648065    -4.012789     0.346212
 C    -5.518779    -2.636502    -1.063528
 H    -6.361525    -3.292594    -1.293920
 C    -1.002463     0.359206     2.498886
 H    -0.074087     0.036494     2.031572
 C    -3.351941     0.911680     2.248478
 C    -4.628284     1.068369     1.474832
 H    -5.091969     0.090160     1.274163
 H    -4.470865     1.547971     0.500251
 H    -5.347414     1.673617     2.044326
 C    -1.044924     0.628357     3.862401
 H    -0.143418     0.522270     4.469641
 C    -3.375249     1.177342     3.623931
 H    -4.316875     1.504248     4.073589
 C    -2.246734     1.039150     4.428485
 H    -2.311090     1.257167     5.497363
