  62
scf done:    -1615.288257
 C     1.863814    -2.992878    -0.745945
 H     1.536558    -4.035579    -0.885876
 H     2.221332    -2.677658    -1.738803
 C     2.999179    -2.964872     0.270739
 H     3.873652    -3.560768    -0.055764
 H     3.367175    -1.943766     0.472361
 H     2.679326    -3.372470     1.243090
Rh     0.308751    -1.730339    -0.039130
 C     1.675302     1.594719    -0.142821
 C     2.962000    -0.205179    -1.995958
 C     0.355573     0.685450    -2.569465
 C    -2.254311     0.816502     0.144852
 C    -2.615781    -1.475405     1.864280
 C    -0.677293     0.446419     2.553486
 P    -1.288867    -0.472595     1.079682
 P     1.351720     0.068636    -1.154732
 C    -0.558344    -3.313120     0.301862
 O    -1.120702    -4.310766     0.427778
 H     0.677937     1.841050     0.267639
 C     2.185514     2.827436    -0.886591
 H     1.497669     3.102608    -1.701800
 H     3.157979     2.599981    -1.357227
 C     2.363733     4.009037     0.064676
 H     2.756152     4.879838    -0.485142
 H     1.374552     4.309419     0.455861
 C     3.279603     3.657008     1.231530
 H     3.370673     4.512356     1.920251
 H     4.296366     3.459484     0.846027
 C     2.779684     2.424013     1.975546
 H     1.815414     2.660614     2.461585
 H     3.474120     2.152945     2.786906
 C     2.589745     1.240364     1.032929
 H     3.575631     0.930883     0.641817
 H     2.186023     0.365566     1.569413
 H     3.700673    -0.616966    -1.295639
 H     2.818807    -0.939389    -2.800328
 H     3.345851     0.727507    -2.433187
 H     0.909236     1.419674    -3.173459
 H     0.091605    -0.175511    -3.199661
 H    -0.576632     1.140303    -2.210300
 H    -1.468376     1.482584    -0.260580
 C    -3.218237     1.683861     0.952557
 H    -2.691894     2.188639     1.777869
 H    -3.990573     1.044266     1.415139
 C    -3.900330     2.722159     0.063448
 H    -4.613010     3.317590     0.657070
 H    -3.138847     3.431771    -0.308716
 C    -4.604781     2.074799    -1.123494
 H    -5.057615     2.845484    -1.768024
 H    -5.438667     1.451489    -0.752627
 C    -3.648981     1.199598    -1.926759
 H    -2.879468     1.838903    -2.397784
 H    -4.182132     0.701184    -2.752296
 C    -2.967711     0.162209    -1.040999
 H    -3.731485    -0.537999    -0.657954
 H    -2.253363    -0.451941    -1.613383
 H    -3.140220    -2.067411     1.101588
 H    -2.141706    -2.180980     2.561765
 H    -3.340909    -0.858786     2.415943
 H    -1.499006     0.836929     3.172007
 H    -0.071777    -0.244130     3.157898
 H    -0.032315     1.280324     2.245452
