  94
scf done:    -2756.689673
 C     1.593259    -2.870583    -1.822259
 H     1.262976    -3.499650    -2.662109
 H     2.566514    -2.446356    -2.102264
 C     1.694942    -3.704938    -0.555362
 H     2.372812    -4.569069    -0.690679
 H     2.092608    -3.121049     0.291595
 H     0.718427    -4.110596    -0.243232
Rh     0.184608    -1.375280    -1.336353
 O     1.934565     0.553881     0.956167
 O     3.376870    -0.725470    -0.711837
 O     2.122858     1.295615    -1.374790
 O    -2.464824     0.721016    -1.565367
 O    -2.802085    -1.253899    -0.106515
 O    -1.398683     0.692012     0.779163
 P    -1.586024    -0.211456    -0.595303
 P     1.875044    -0.101672    -0.534812
 C    -0.775495    -2.005788    -2.808785
 O    -1.311421    -2.301393    -3.778797
 C     1.428063    -0.130843     2.106745
 H     0.581080    -0.758207     1.777503
 C     0.927544     0.928943     3.061631
 H     0.181808     1.562544     2.564549
 H     1.762709     1.561308     3.400357
 H     0.462761     0.465183     3.944452
 C     2.507477    -1.015332     2.698902
 H     2.820593    -1.791942     1.985933
 H     3.394924    -0.419146     2.959195
 H     2.137683    -1.514750     3.607089
 C     4.539292    -0.321757    -0.105977
 C     4.903104     1.017430     0.001970
 H     4.246215     1.781551    -0.414275
 C     5.365477    -1.330152     0.391606
 H     5.053466    -2.370384     0.282566
 C     6.102077     1.372048     0.631766
 C     6.484733     2.819804     0.744034
 H     6.621096     3.271581    -0.251486
 H     5.701054     3.400137     1.256034
 H     7.421864     2.947486     1.303473
 C     6.560118    -0.979834     1.010289
 H     7.214632    -1.761855     1.402760
 C     6.925017     0.360662     1.136514
 H     7.864044     0.625777     1.628938
 C     1.187015     2.297676    -1.446657
 C     1.200678     3.308922    -0.488158
 H     1.913225     3.236597     0.335739
 C     0.281840     2.320026    -2.505128
 H     0.283311     1.500600    -3.225224
 C     0.317207     4.388663    -0.587393
 C     0.316312     5.465196     0.459554
 H    -0.186761     5.119611     1.378795
 H     1.339825     5.753212     0.741769
 H    -0.209140     6.365765     0.111574
 C    -0.602359     3.389794    -2.602886
 H    -1.317725     3.421955    -3.427204
 C    -0.581750     4.417381    -1.661116
 H    -1.277030     5.255678    -1.757353
 C    -3.898814     0.899585    -1.578620
 H    -4.281697     0.720983    -0.561341
 C    -4.505359    -0.103795    -2.537273
 H    -4.292245    -1.129600    -2.209391
 H    -4.091069     0.035145    -3.547401
 H    -5.596868     0.026451    -2.585791
 C    -4.160855     2.334676    -1.975627
 H    -3.675171     3.025660    -1.274128
 H    -3.772864     2.529121    -2.986768
 H    -5.242579     2.534548    -1.972306
 C    -2.453953    -2.491567     0.370988
 C    -1.602674    -2.616434     1.468629
 H    -1.234562    -1.713295     1.959342
 C    -2.965415    -3.623038    -0.262560
 H    -3.623959    -3.502569    -1.124119
 C    -1.221267    -3.878095     1.937673
 C    -0.240735    -3.995533     3.067014
 H    -0.404864    -3.218082     3.828008
 H    -0.301684    -4.977002     3.557594
 H     0.789565    -3.874241     2.692579
 C    -2.606474    -4.879794     0.214937
 H    -3.000467    -5.773679    -0.274278
 C    -1.738758    -5.009355     1.299365
 H    -1.455806    -6.003928     1.652941
 C    -2.391048     1.431961     1.376285
 C    -3.321841     0.818232     2.211868
 H    -3.275863    -0.262530     2.358185
 C    -2.416328     2.807546     1.158147
 H    -1.675641     3.246010     0.488744
 C    -4.311413     1.579756     2.843860
 C    -5.299159     0.921543     3.763104
 H    -5.615845    -0.058765     3.377578
 H    -4.856097     0.751560     4.758473
 H    -6.195262     1.542326     3.903128
 C    -3.398073     3.567547     1.787639
 H    -3.433112     4.647149     1.621526
 C    -4.338985     2.961231     2.618559
 H    -5.108182     3.568476     3.102664
