  54
scf done:    -2107.176510
 C     0.157763    -3.649317    -0.816574
 H    -0.618883    -4.428339    -0.844164
 H     0.512895    -3.509095    -1.847038
 C     1.297607    -4.074081     0.096847
 H     1.676045    -5.081484    -0.161444
 H     2.155072    -3.385942     0.023289
 H     0.992664    -4.118902     1.156969
Rh    -0.534608    -1.841856     0.032442
 C     2.291291     0.379931    -0.251661
 O     2.072725    -1.647920    -2.027132
 O     0.511436     0.395624    -2.144565
 C    -1.822049     1.437574     0.327744
 O    -2.406427    -0.166775     2.280969
 O     0.046133     0.635474     2.118394
 P    -1.162729    -0.008819     1.210928
 P     1.101799    -0.717344    -1.088762
 C    -2.220745    -2.624854     0.001826
 O    -3.281168    -3.035497    -0.168951
 C     2.668269     1.631681    -0.751528
 H     2.234957     1.984277    -1.689727
 C     2.828620    -0.064919     0.961182
 H     2.513153    -1.029337     1.369706
 C     3.570724     2.428925    -0.052789
 H     3.876569     3.410392    -0.419980
 C     3.739594     0.716255     1.664116
 H     4.168357     0.388178     2.612535
 C     4.095122     1.956603     1.145653
 F     4.955763     2.716114     1.818009
 C     3.074515    -1.099376    -2.853253
 H     2.659498    -0.343659    -3.539973
 H     3.877956    -0.634146    -2.257734
 H     3.498276    -1.924224    -3.442060
 C    -0.696027     0.158287    -2.844695
 H    -0.495883    -0.359907    -3.796192
 H    -1.382996    -0.454249    -2.236567
 H    -1.157820     1.134350    -3.048075
 C    -3.186580     1.541659     0.034394
 H    -3.881972     0.802249     0.436987
 C    -0.934193     2.392242    -0.183100
 H     0.133466     2.313562     0.033775
 C    -3.661768     2.582949    -0.757207
 H    -4.721800     2.684458    -0.996652
 C    -1.398745     3.440758    -0.970870
 H    -0.723853     4.198083    -1.373598
 C    -2.758663     3.518390    -1.250323
 F    -3.207825     4.515935    -2.007594
 C    -2.457201    -1.288603     3.136758
 H    -2.060707    -2.191432     2.641116
 H    -1.876587    -1.106525     4.056331
 H    -3.508549    -1.459253     3.406213
 C    -0.173913     1.689449     3.033523
 H    -0.623538     2.567954     2.542646
 H    -0.835993     1.372409     3.854561
 H     0.806223     1.969550     3.443001
