  66
scf done:    -1916.040607
 C     0.774053    -3.463818    -0.515631
 H     0.134131    -4.335509    -0.720959
 H     1.381138    -3.291542    -1.415779
 C     1.664788    -3.738398     0.687114
 H     2.241551    -4.675587     0.567466
 H     2.400622    -2.932685     0.841547
 H     1.085161    -3.847815     1.620402
Rh    -0.325583    -1.748166     0.050996
 C     2.030259     1.019857     0.160185
 O     2.718833    -1.264451    -1.222966
 O     0.918542     0.341781    -2.133153
 C    -1.747956     1.524921    -0.133233
 O    -2.970771    -0.150759     1.446749
 O    -0.673870     0.806192     2.176606
 P    -1.428766     0.057055     0.903494
 P     1.377314    -0.439381    -0.754180
 C    -1.841943    -2.755823    -0.309819
 O    -2.771480    -3.316065    -0.691386
 H     1.137117     1.390138     0.695539
 C     2.591059     2.184652    -0.655748
 H     1.853879     2.508071    -1.404885
 H     3.483220     1.861399    -1.217044
 C     2.973855     3.336883     0.269125
 H     3.398108     4.167630    -0.317832
 H     2.059897     3.730504     0.750069
 C     3.956895     2.889951     1.346424
 H     4.196717     3.728090     2.020448
 H     4.908529     2.595772     0.867121
 C     3.414713     1.707910     2.143231
 H     2.525925     2.034060     2.713176
 H     4.156118     1.369855     2.885217
 C     3.021449     0.551532     1.230091
 H     3.922573     0.142433     0.741463
 H     2.592298    -0.278209     1.815392
 C     3.721161    -0.744011    -2.064024
 H     3.307729    -0.036405    -2.800132
 H     4.505605    -0.232798    -1.481354
 H     4.179540    -1.588587    -2.598629
 C     0.219783    -0.368757    -3.138043
 H     0.923901    -0.886592    -3.810220
 H    -0.458393    -1.113954    -2.688285
 H    -0.360551     0.360453    -3.720075
 H    -0.753562     1.769889    -0.550556
 C    -2.284998     2.739847     0.620875
 H    -1.605319     3.002292     1.444832
 H    -3.250507     2.469547     1.080763
 C    -2.469642     3.919098    -0.329718
 H    -2.889610     4.780239     0.215177
 H    -1.479113     4.240355    -0.701194
 C    -3.356521     3.557336    -1.516883
 H    -3.441109     4.411696    -2.208022
 H    -4.378753     3.349123    -1.152501
 C    -2.833366     2.327369    -2.251789
 H    -1.857794     2.564317    -2.714871
 H    -3.512230     2.053444    -3.075633
 C    -2.658849     1.146656    -1.303796
 H    -3.639539     0.840281    -0.901708
 H    -2.252182     0.271951    -1.834908
 C    -3.310860    -1.224391     2.290855
 H    -2.644506    -2.090889     2.134936
 H    -3.257253    -0.917368     3.348842
 H    -4.342090    -1.530516     2.063960
 C    -0.037185     0.015159     3.154299
 H    -0.733891    -0.241202     3.969825
 H     0.358245    -0.921796     2.719013
 H     0.797218     0.592837     3.577005
