  90
scf done:    -2904.091058
 C     1.600291    -1.571812    -3.174474
 H     1.275189    -1.747143    -4.211099
 H     2.259185    -0.689599    -3.228820
 C     2.364488    -2.776570    -2.641895
 H     1.745428    -3.688593    -2.651012
 H     3.267132    -2.992571    -3.244150
 H     2.705779    -2.627978    -1.603992
Rh    -0.070938    -1.292400    -1.880882
 C     2.938673    -0.108515    -0.448033
 O     1.373519     1.621693    -1.838658
 O     0.568453     0.822597     0.516580
 C    -2.634085     0.428100    -0.162107
 O    -2.907074    -2.261248    -0.576035
 O    -1.347219    -1.349529     1.241663
 P    -1.716217    -1.112258    -0.372934
 P     1.225976     0.268756    -0.890014
 C    -1.105808    -2.134954    -3.201525
 O    -1.749684    -2.550504    -4.052761
 C     4.019627     0.227052    -1.275515
 H     3.848835     0.815187    -2.179076
 C     3.171178    -0.892649     0.685324
 H     2.341880    -1.180687     1.334835
 C     5.302667    -0.191165    -0.960052
 H     6.155305     0.060309    -1.593227
 C     4.455200    -1.315319     1.012126
 H     4.597569    -1.921671     1.906475
 C     5.532559    -0.964556     0.187773
 O     6.807311    -1.324890     0.414802
 C     7.099499    -2.114239     1.535135
 H     6.577566    -3.086373     1.498111
 H     8.182142    -2.291425     1.520418
 H     6.833626    -1.603292     2.477076
 C     1.474316     2.909201    -1.371076
 C     2.684677     3.591675    -1.485486
 H     3.541937     3.092640    -1.938642
 C     0.359118     3.532380    -0.809421
 H    -0.579662     2.982866    -0.732332
 C     2.782671     4.897383    -1.008133
 H     3.732610     5.430393    -1.093886
 C     0.472234     4.832119    -0.325855
 H    -0.396409     5.307605     0.135986
 C     1.682875     5.518217    -0.418004
 H     1.768685     6.536526    -0.032860
 C     0.969040     1.610514     1.561440
 C     2.236781     2.176509     1.692229
 H     3.001075     2.010658     0.935403
 C    -0.012966     1.841830     2.527046
 H    -0.996613     1.394234     2.377660
 C     2.508761     2.979882     2.798555
 H     3.499788     3.430172     2.892213
 C     0.274298     2.644183     3.626336
 H    -0.500892     2.827259     4.374466
 C     1.538230     3.217404     3.769282
 H     1.763010     3.851232     4.629722
 C    -3.328554     0.777099     1.008092
 H    -3.345250     0.087227     1.854162
 C    -2.621038     1.319653    -1.235235
 H    -2.064583     1.053369    -2.140257
 C    -3.978972     1.995110     1.096576
 H    -4.518463     2.288482     1.998922
 C    -3.276820     2.547799    -1.158469
 H    -3.239432     3.226967    -2.010092
 C    -3.954219     2.894154     0.016674
 O    -4.598554     4.058565     0.202389
 C    -4.580985     5.013933    -0.823249
 H    -5.060658     4.637020    -1.743251
 H    -5.147412     5.878843    -0.456240
 H    -3.552374     5.335048    -1.064708
 C    -4.021657    -2.324758     0.220087
 C    -5.199516    -1.708228    -0.201799
 H    -5.204173    -1.172686    -1.152714
 C    -3.974447    -3.016804     1.430639
 H    -3.042705    -3.496939     1.734103
 C    -6.336239    -1.780704     0.599640
 H    -7.258871    -1.296711     0.270702
 C    -5.117105    -3.081361     2.225306
 H    -5.082722    -3.623333     3.173482
 C    -6.298364    -2.462775     1.815620
 H    -7.191250    -2.516405     2.442460
 C    -0.302623    -2.114426     1.661890
 C     0.203858    -3.182263     0.913178
 H    -0.239143    -3.431303    -0.054757
 C     0.256316    -1.798712     2.903099
 H    -0.147539    -0.952894     3.461123
 C     1.279368    -3.917931     1.409304
 H     1.677440    -4.742238     0.813296
 C     1.319865    -2.552259     3.393489
 H     1.751844    -2.298374     4.364445
 C     1.839724    -3.612440     2.648550
 H     2.676463    -4.199314     3.033749
