  90
scf done:    -2531.539614
 C     1.276444    -1.199991    -3.025268
 H     1.235033    -0.801014    -4.050801
 H     2.334895    -1.169064    -2.728985
 C     0.765111    -2.632955    -2.998719
 H    -0.296604    -2.704340    -3.288021
 H     1.330097    -3.285186    -3.692193
 H     0.862204    -3.089105    -1.997882
Rh     0.007880    -0.211946    -1.667985
 C     1.898554    -1.394239     1.089698
 C     3.452399     0.143165    -0.792494
 C     1.705708     1.529978     0.822171
 C    -1.867608     1.575376     0.926766
 C    -3.434979    -0.054325    -0.826575
 C    -1.783693    -1.352899     1.002370
 P    -1.730027     0.090766    -0.135357
 P     1.741947    -0.039018    -0.130641
 C    -0.823814     0.553132    -3.125349
 O    -1.217318     1.195127    -3.998813
 C     1.324975    -1.334229     2.364579
 C     2.458104    -2.606671     0.658428
 C     1.909433    -3.642316     2.771200
 C     2.471976    -3.717595     1.496989
 C     1.329579    -2.450228     3.198490
 H     0.863823    -0.408378     2.709944
 H     0.868668    -2.386250     4.186587
 H     1.915277    -4.516330     3.426802
 H     2.919998    -4.651592     1.149152
 H     2.892047    -2.677920    -0.342655
 C     3.607492     0.871308    -1.975732
 H     2.718658     1.205591    -2.518742
 C     4.585949    -0.288032    -0.097074
 H     4.471578    -0.843619     0.837432
 C     4.885045     1.155527    -2.450411
 H     5.005619     1.725551    -3.374809
 C     5.874626    -0.019597    -0.569574
 C     7.085082    -0.513652     0.169087
 H     7.851387     0.271607     0.255890
 H     6.827537    -0.852800     1.182382
 H     7.550347    -1.363510    -0.357210
 C     6.007542     0.711016    -1.756390
 H     7.006948     0.935298    -2.140274
 C     2.377705     1.708101     2.035204
 H     2.883322     0.869037     2.517950
 C     1.108222     2.628709     0.196442
 H     0.586028     2.464480    -0.752380
 C     2.412186     2.970973     2.621851
 H     2.923378     3.111322     3.577654
 C     1.170474     3.907885     0.754790
 C     0.590521     5.090486     0.036674
 H     1.380218     5.648983    -0.493164
 H    -0.154941     4.779390    -0.707580
 H     0.105881     5.787993     0.735367
 C     1.816537     4.058577     1.987450
 H     1.859834     5.047274     2.453320
 C    -2.421084     2.739204     0.374074
 C    -1.315116     1.637577     2.210832
 C    -1.914429     3.970197     2.389961
 C    -1.337419     2.826237     2.936482
 C    -2.454416     3.923215     1.105050
 H    -2.838222     2.714354    -0.636337
 H    -2.899161     4.818349     0.663573
 H    -1.935055     4.901429     2.961045
 H    -0.893711     2.856989     3.933984
 H    -0.859713     0.749635     2.650260
 C    -3.614587    -0.743931    -2.026758
 H    -2.741591    -1.110252    -2.572684
 C    -4.558774     0.398504    -0.123415
 H    -4.428254     0.929090     0.823385
 C    -4.901316    -0.961694    -2.518003
 H    -5.037352    -1.498959    -3.459662
 C    -5.852598     0.194805    -0.607334
 C    -7.049481     0.698999     0.146160
 H    -7.748360    -0.119826     0.379155
 H    -6.757557     1.174528     1.092901
 H    -7.608257     1.441911    -0.445391
 C    -6.008082    -0.492957    -1.818882
 H    -7.013290    -0.662373    -2.215622
 C    -2.456233    -1.365211     2.227958
 H    -2.943252    -0.462556     2.602524
 C    -1.203880    -2.534094     0.527308
 H    -0.685211    -2.514547    -0.437444
 C    -2.507525    -2.541743     2.972508
 H    -3.020178    -2.550003     3.937762
 C    -1.274271    -3.728419     1.248092
 C    -0.696194    -4.997301     0.694702
 H    -1.485987    -5.622046     0.245330
 H     0.049227    -4.789656    -0.085017
 H    -0.210907    -5.593973     1.480806
 C    -1.922341    -3.709533     2.488667
 H    -1.974190    -4.627325     3.081386
