  94
scf done:    -2832.186215
 C     1.306242    -1.862841    -2.623748
 H     0.976559    -1.951332    -3.670894
 H     2.338385    -1.490907    -2.652912
 C     1.234395    -3.220227    -1.946507
 H     1.816185    -3.987101    -2.492845
 H     1.640945    -3.193122    -0.922064
 H     0.199756    -3.595516    -1.883560
Rh     0.018032    -0.630935    -1.519320
 C     1.273499    -0.704158     1.818004
 C     3.325579    -1.083239    -0.128577
 C     2.152962     1.512756     0.124439
 C    -1.681454     1.927044     0.278543
 C    -3.427673     0.097213    -1.118740
 C    -2.252331    -0.796787     1.217887
 P    -1.793175     0.186752    -0.270620
 P     1.685981    -0.264247     0.078244
 C    -0.480865     0.117965    -3.114971
 O    -0.620570     0.757429    -4.069168
 C     1.416204     0.149664     2.916966
 C     0.712971    -1.972805     2.021664
 C     0.491982    -1.536892     4.383733
 C     0.346238    -2.395795     3.296115
 C     1.016350    -0.260841     4.187936
 H     1.834720     1.146569     2.780377
 H     1.121580     0.423387     5.033787
 H     0.181833    -1.857248     5.381152
 H    -0.086014    -3.388785     3.434074
 H     0.548146    -2.627446     1.160533
 C     3.769499    -2.116127     0.695335
 H     3.155282    -2.421921     1.544181
 C     4.147657    -0.681446    -1.202604
 O     3.687084     0.338605    -1.948444
 C     4.376304     0.741799    -3.094913
 H     5.381865     1.129249    -2.853161
 H     3.781566     1.547039    -3.543723
 H     4.471942    -0.083423    -3.822177
 C     4.987245    -2.757913     0.466338
 H     5.309494    -3.566255     1.126092
 C     5.368430    -1.320856    -1.437095
 H     5.999183    -1.012950    -2.271421
 C     5.781826    -2.358551    -0.602451
 H     6.736591    -2.853558    -0.796343
 C     1.456521     2.402331    -0.692494
 H     0.636824     2.000308    -1.293119
 C     3.258555     1.993276     0.856952
 O     3.935363     1.091183     1.593640
 C     5.125091     1.454617     2.229321
 H     5.865451     1.849901     1.512251
 H     5.523576     0.539083     2.684506
 H     4.958555     2.206559     3.021385
 C     1.800567     3.750322    -0.763512
 H     1.227507     4.425285    -1.401452
 C     3.608074     3.346498     0.792217
 H     4.457066     3.724725     1.362386
 C     2.873668     4.217391    -0.012949
 H     3.158177     5.272060    -0.053494
 C    -2.182366     2.940111    -0.548690
 C    -0.941407     2.284401     1.411166
 C    -1.256296     4.627446     0.915326
 C    -0.741440     3.624788     1.733255
 C    -1.970404     4.279189    -0.231649
 H    -2.741711     2.676636    -1.450412
 H    -2.367965     5.057945    -0.887434
 H    -1.089858     5.678755     1.161727
 H    -0.157245     3.883527     2.619667
 H    -0.497170     1.510642     2.038290
 C    -3.540593    -0.605938    -2.317330
 H    -2.629277    -1.028103    -2.747916
 C    -4.601339     0.620937    -0.529771
 O    -4.455880     1.256061     0.645121
 C    -5.569263     1.805837     1.286965
 H    -6.052107     2.585211     0.672139
 H    -5.198223     2.263991     2.212443
 H    -6.316455     1.034516     1.542711
 C    -4.770764    -0.775391    -2.952292
 H    -4.830047    -1.325561    -3.893404
 C    -5.835719     0.463612    -1.168820
 H    -6.742912     0.875854    -0.726671
 C    -5.912822    -0.232131    -2.375166
 H    -6.884906    -0.348479    -2.861113
 C    -2.579207    -0.275269     2.467651
 H    -2.520365     0.801434     2.627271
 C    -2.377068    -2.187522     1.015517
 O    -2.047090    -2.634058    -0.213386
 C    -2.327828    -3.958100    -0.572275
 H    -1.717896    -4.676382     0.002438
 H    -2.074349    -4.050924    -1.635383
 H    -3.396572    -4.194045    -0.432086
 C    -3.007222    -1.102571     3.506521
 H    -3.250341    -0.671551     4.479859
 C    -2.828555    -3.017808     2.043405
 H    -2.934178    -4.090878     1.882244
 C    -3.136377    -2.469167     3.288285
 H    -3.481575    -3.125380     4.091081
