  58
scf done:    -1836.941920
 C     4.037953     0.359747    -1.280283
 H     3.717482     0.506113    -2.328150
 H     4.280848     1.370389    -0.896544
 C     5.309050    -0.478300    -1.239974
 H     5.173865    -1.456413    -1.728634
 H     6.155495     0.021429    -1.748802
 H     5.632663    -0.682520    -0.206383
Rh     2.398844    -0.343681    -0.143824
 C    -0.235285     2.014876    -0.119420
 C     2.242932     3.023521     0.977918
 C     1.893602     2.740470    -1.825661
 C    -0.902152    -1.310067     0.861359
 C     1.210945    -2.632221     2.211057
 C     0.634572     0.054126     2.881961
 P     0.821822    -1.023952     1.408180
 P     1.579112     1.840696    -0.256605
 C     2.805091    -2.078270    -0.625546
 O     2.925570    -3.158568    -1.012190
 C    -0.884679     2.780427     0.858262
 H    -0.307391     3.348352     1.591516
 C    -1.026021     1.316614    -1.039256
 H    -0.545345     0.683475    -1.790583
 C    -2.271329     2.833786     0.920506
 H    -2.783215     3.418191     1.687381
 C    -2.414500     1.385046    -1.008333
 H    -2.992341     0.817026    -1.736681
 C    -3.049572     2.135815    -0.011496
 O    -4.383531     2.232803     0.132395
 C    -5.217359     1.584940    -0.792439
 H    -5.095573     0.489126    -0.761992
 H    -6.247735     1.834011    -0.508542
 H    -5.037244     1.942875    -1.821500
 H     2.026169     2.672157     1.996162
 H     3.335615     3.045709     0.855937
 H     1.842981     4.039829     0.841443
 H     1.464361     3.752012    -1.780491
 H     2.974819     2.794494    -2.010528
 H     1.431626     2.184789    -2.653083
 C    -2.036885    -0.888776     1.566767
 H    -1.935377    -0.348317     2.509607
 C    -1.089437    -1.980211    -0.351439
 H    -0.214825    -2.289696    -0.931529
 C    -3.312415    -1.124654     1.073792
 H    -4.198261    -0.779192     1.610201
 C    -2.363578    -2.238443    -0.851879
 H    -2.467345    -2.763000    -1.801985
 C    -3.485452    -1.799788    -0.139857
 O    -4.761512    -1.954787    -0.560465
 C    -4.999017    -2.659029    -1.748181
 H    -4.614915    -3.692364    -1.693708
 H    -6.087558    -2.691362    -1.883029
 H    -4.545475    -2.158679    -2.622273
 H     1.231424    -3.418751     1.443562
 H     2.212479    -2.569929     2.662411
 H     0.467246    -2.892855     2.979032
 H     0.019032    -0.412194     3.665955
 H     1.639044     0.245152     3.286578
 H     0.182447     1.011368     2.588015
