  90
scf done:    -2928.308635
 C    -0.393617     3.256402    -2.236945
 H     0.162730     3.763207    -3.040360
 H    -1.414319     3.130284    -2.628276
 C    -0.375557     4.128834    -0.990706
 H    -0.840179     5.118091    -1.165158
 H    -0.904591     3.671969    -0.136309
 H     0.651772     4.315247    -0.642136
Rh     0.511380     1.446215    -1.659590
 C    -1.626533     0.638759     1.158343
 C    -3.007186     1.681744    -1.188642
 C    -1.896231    -1.016683    -1.286975
 C     1.703690    -1.897192    -0.633032
 C     3.660094    -0.056114    -1.382896
 C     2.203444     0.350520     1.127399
 P     1.930317    -0.075793    -0.650773
 P    -1.497439     0.707030    -0.670949
 C     1.546361     1.630624    -3.161769
 O     2.103328     1.656281    -4.171676
 C    -1.155232    -0.473554     1.871583
 C    -2.086969     1.745267     1.884681
 C    -1.686292     0.598542     3.973791
 C    -2.125250     1.723574     3.277408
 C    -1.190859    -0.495071     3.264275
 H    -0.768572    -1.343874     1.339075
 H    -0.834263    -1.379934     3.796837
 H    -1.721746     0.577269     5.065338
 H    -2.496113     2.596102     3.820713
 H    -2.410530     2.648428     1.363829
 H    -2.881753     2.691452    -0.771692
 H    -2.861412     1.793434    -2.272617
 C    -4.367599     1.125488    -0.910363
 C    -5.013923     0.336713    -1.873382
 H    -4.535361     0.171373    -2.842260
 C    -5.036092     1.355256     0.300817
 H    -4.573476     1.978344     1.066541
 C    -6.256625    -0.240921    -1.630426
 H    -6.755558    -0.861258    -2.376779
 C    -6.281349     0.789260     0.560227
 H    -6.801332     0.963533     1.503851
 C    -6.873590    -0.013612    -0.407077
 F    -8.060902    -0.563259    -0.161335
 H    -2.588207    -0.838634    -2.125848
 H    -0.961959    -1.373007    -1.738650
 C    -2.441190    -2.076640    -0.368783
 C    -1.747552    -3.286677    -0.246836
 H    -0.832327    -3.439533    -0.819967
 C    -3.609130    -1.911763     0.386528
 H    -4.165863    -0.978256     0.332955
 C    -2.189669    -4.299520     0.600560
 H    -1.642916    -5.239234     0.697097
 C    -4.068528    -2.913970     1.234651
 H    -4.976320    -2.782615     1.826086
 C    -3.349657    -4.098480     1.335819
 F    -3.780031    -5.057750     2.155866
 C     1.473493    -2.504320    -1.877562
 C     1.840515    -2.707450     0.498258
 C     1.568124    -4.691831    -0.858015
 C     1.764361    -4.096495     0.385955
 C     1.420279    -3.890745    -1.992923
 H     1.345567    -1.875571    -2.764958
 H     1.252218    -4.349308    -2.970239
 H     1.522064    -5.779808    -0.945073
 H     1.875986    -4.716889     1.278275
 H     2.032271    -2.264160     1.476973
 H     3.535040    -0.464065    -2.397479
 H     3.928940     1.001989    -1.511793
 C     4.699133    -0.805545    -0.611766
 C     5.482876    -0.159032     0.354402
 H     5.366071     0.915978     0.515064
 C     4.887751    -2.182456    -0.798575
 H     4.294117    -2.710871    -1.547878
 C     6.417217    -0.855431     1.116944
 H     7.031592    -0.354366     1.866998
 C     5.817217    -2.893628    -0.046007
 H     5.968040    -3.964909    -0.189940
 C     6.569589    -2.220089     0.908218
 F     7.459709    -2.895929     1.633521
 H     1.404460    -0.152292     1.690011
 H     3.162295    -0.080176     1.462791
 C     2.129457     1.828104     1.405675
 C     2.922452     2.763130     0.725847
 H     3.609560     2.436736    -0.055613
 C     1.251215     2.303933     2.385060
 H     0.618014     1.597781     2.924926
 C     2.852531     4.122187     1.017921
 H     3.465773     4.852027     0.486829
 C     1.161906     3.660307     2.686017
 H     0.470905     4.029929     3.445592
 C     1.968399     4.555632     1.997750
 F     1.888852     5.856355     2.275431
