  86
scf done:    -2451.986480
 C     1.836277     0.397313     2.875149
 H     1.601407     0.358689     3.946323
 H     2.582930    -0.378954     2.655190
 C     2.259758     1.774292     2.396931
 H     2.194567     2.545450     3.178604
 H     3.270499     1.786181     1.959936
 H     1.595446     2.150649     1.560784
Rh     0.164390     0.500888     1.613120
 C     2.960048    -0.630050    -0.197905
 O     1.562218    -2.445267     1.045818
 O     0.493544    -1.427788    -1.057045
 C    -2.830634     0.210029    -0.271246
 O    -2.102106     2.629602     0.320273
 O    -0.619237     1.432037    -1.384821
 P    -1.341511     1.184479     0.075061
 P     1.261325    -0.989733     0.336354
 C    -1.043011     0.394456     3.035270
 O    -1.800665     0.127307     3.862015
 C     4.055701    -1.475219     0.020397
 H     3.899834    -2.421024     0.542624
 C     3.165062     0.588688    -0.850606
 H     2.312436     1.255645    -1.016664
 C     5.320321    -1.114677    -0.420544
 H     6.186736    -1.758657    -0.257654
 C     4.428708     0.958949    -1.304150
 H     4.556243     1.913307    -1.815365
 C     5.517397     0.102361    -1.089325
 O     6.777899     0.367215    -1.481252
 C     7.041697     1.568693    -2.149718
 H     6.801776     2.447617    -1.525665
 H     8.116117     1.575375    -2.372651
 H     6.480431     1.643358    -3.097924
 C     0.595823    -3.040555     1.921939
 H    -0.284908    -2.373109     1.964248
 C     1.193591    -3.137758     3.308924
 H     1.423533    -2.136108     3.694371
 H     2.121214    -3.731041     3.286840
 H     0.486402    -3.621161     3.999551
 C     0.196648    -4.385650     1.350626
 H    -0.244157    -4.273140     0.350297
 H     1.074079    -5.045910     1.267590
 H    -0.544899    -4.875018     1.999589
 C     0.962098    -2.456926    -1.935109
 H     1.599963    -3.148021    -1.355922
 C     1.767071    -1.859071    -3.074735
 H     2.666378    -1.347915    -2.708242
 H     1.156196    -1.130479    -3.628730
 H     2.080685    -2.650055    -3.772810
 C    -0.260099    -3.203676    -2.432806
 H    -0.822899    -3.644803    -1.597963
 H    -0.933257    -2.516984    -2.967832
 H     0.032249    -4.013285    -3.118025
 C    -2.698440    -1.185827    -0.341120
 H    -1.715439    -1.633827    -0.184444
 C    -4.088960     0.778978    -0.474280
 H    -4.203365     1.861418    -0.393312
 C    -3.789569    -1.984851    -0.635624
 H    -3.700366    -3.070945    -0.700547
 C    -5.196930    -0.016822    -0.762970
 H    -6.168317     0.455467    -0.911235
 C    -5.050518    -1.406685    -0.850295
 O    -6.054467    -2.259099    -1.125813
 C    -7.340459    -1.746829    -1.337449
 H    -7.372327    -1.061913    -2.203142
 H    -7.991659    -2.606182    -1.541205
 H    -7.721153    -1.213483    -0.448753
 C    -1.331700     3.785033     0.664557
 H    -0.282481     3.614589     0.356128
 C    -1.378109     4.009655     2.162540
 H    -0.947583     3.148587     2.693121
 H    -2.419453     4.139782     2.494681
 H    -0.807233     4.910129     2.435644
 C    -1.893665     4.949741    -0.124981
 H    -1.846620     4.752511    -1.205492
 H    -2.946853     5.118340     0.147955
 H    -1.330206     5.870782     0.086399
 C    -1.328262     1.848112    -2.553789
 H    -2.277630     2.322207    -2.245017
 C    -1.625595     0.646317    -3.429258
 H    -2.251402    -0.082698    -2.897176
 H    -0.687066     0.150096    -3.716613
 H    -2.153782     0.956770    -4.343537
 C    -0.464205     2.879680    -3.251122
 H    -0.257106     3.729886    -2.585332
 H     0.498204     2.430529    -3.541553
 H    -0.959653     3.257897    -4.157900
