  86
scf done:    -1929.510806
 C    -1.474334    -0.104233     2.885053
 H    -1.262811     0.600739     3.705827
 H    -2.476117     0.166005     2.518305
 C    -1.511121    -1.523024     3.439858
 H    -0.583885    -1.777531     3.977974
 H    -2.347772    -1.671119     4.149432
 H    -1.633043    -2.283495     2.649032
Rh    -0.032588    -0.063777     1.317150
 C    -2.759477    -0.186656    -0.923448
 C    -2.696169     2.213166     0.869452
 C    -1.078113     2.124932    -1.531761
 C     2.788912     0.388822    -0.839542
 C     2.611028    -2.195977     0.631218
 C     0.776980    -1.669676    -1.707825
 P     1.562896    -0.875516    -0.203703
 P    -1.598192     1.025133    -0.101325
 C     1.176239     0.013158     2.694292
 O     1.924523     0.246582     3.543379
 H    -2.062216    -0.731430    -1.588450
 C    -3.905665     0.330886    -1.791342
 H    -3.550943     1.075722    -2.521498
 H    -4.644778     0.841105    -1.151375
 C    -4.603440    -0.821732    -2.510361
 H    -5.430892    -0.436532    -3.128369
 H    -3.890052    -1.298024    -3.207753
 C    -5.115948    -1.862382    -1.520985
 H    -5.586079    -2.703890    -2.055270
 H    -5.909305    -1.407047    -0.900719
 C    -3.998271    -2.363177    -0.613491
 H    -3.266358    -2.930196    -1.216788
 H    -4.394785    -3.068597     0.134501
 C    -3.276462    -1.215465     0.084547
 H    -3.967715    -0.724142     0.792613
 H    -2.439817    -1.593561     0.692800
 H    -3.378043     1.512664     1.380209
 C    -1.910938     2.961213     1.947772
 H    -2.589525     3.300810     2.746015
 H    -1.131851     2.328271     2.393174
 H    -1.423621     3.857066     1.534076
 C    -3.544084     3.198293     0.069851
 H    -4.148834     2.728166    -0.715338
 H    -4.236046     3.718170     0.752485
 H    -2.923803     3.976839    -0.400689
 H    -2.006072     2.644661    -1.819497
 C    -0.071285     3.168062    -1.060446
 H     0.229448     3.817460    -1.898646
 H    -0.475010     3.812433    -0.268777
 H     0.831571     2.686624    -0.658693
 C    -0.566494     1.413813    -2.776982
 H    -1.245006     0.626939    -3.137080
 H    -0.453220     2.145721    -3.592982
 H     0.422256     0.965231    -2.612726
 H     2.206364     0.907380    -1.624962
 C     4.112738    -0.065248    -1.459135
 H     3.953552    -0.803672    -2.256508
 H     4.719492    -0.561499    -0.682563
 C     4.901093     1.123650    -2.005414
 H     5.847976     0.772641    -2.447363
 H     4.328325     1.589178    -2.828422
 C     5.168777     2.162567    -0.924059
 H     5.702949     3.030054    -1.344552
 H     5.838566     1.724200    -0.162195
 C     3.872467     2.602418    -0.255365
 H     3.256589     3.158054    -0.986221
 H     4.080152     3.303250     0.569237
 C     3.070078     1.415616     0.265196
 H     3.628695     0.923728     1.082031
 H     2.119970     1.744850     0.714610
 H     3.289199    -1.566792     1.238135
 C     1.803421    -3.059407     1.601316
 H     2.487208    -3.608787     2.268127
 H     1.122063    -2.459838     2.219384
 H     1.198698    -3.805636     1.065988
 C     3.456304    -3.102960    -0.260874
 H     4.088977    -2.562547    -0.973294
 H     4.118905    -3.718987     0.368995
 H     2.823984    -3.800844    -0.829655
 H     0.042279    -0.898092    -1.976570
 C     1.625878    -1.925257    -2.946183
 H     0.988315    -2.326706    -3.751681
 H     2.084651    -1.001871    -3.328498
 H     2.427064    -2.655792    -2.768838
 C    -0.027668    -2.897474    -1.292060
 H    -0.618932    -2.702597    -0.383643
 H    -0.724849    -3.182940    -2.096502
 H     0.617186    -3.766301    -1.095852
