  98
scf done:    -3157.208227
 C     0.505620    -3.218025    -2.753854
 H    -0.050014    -3.685455    -3.581438
 H     1.493554    -2.973965    -3.173236
 C     0.616087    -4.210996    -1.605888
 H    -0.375548    -4.516549    -1.238611
 H     1.149036    -5.135236    -1.900545
 H     1.146930    -3.800398    -0.729257
Rh    -0.499821    -1.546841    -1.959583
 C     1.703819    -0.814888     0.840154
 C     3.051670    -1.583441    -1.620257
 C     1.763920     1.028277    -1.479662
 C    -1.853576     1.584181    -0.543904
 C    -3.726899    -0.317528    -1.378706
 C    -2.103776    -0.845163     1.000010
 P    -1.962093    -0.233956    -0.739401
 P     1.499281    -0.759121    -0.979220
 C    -1.609426    -1.679913    -3.412105
 O    -2.226285    -1.661717    -4.387190
 C     2.267384    -1.936042     1.471000
 H     2.619611    -2.781956     0.877303
 C     1.202206     0.201748     1.659596
 H     0.730945     1.081186     1.217886
 C     2.377689    -2.011960     2.850881
 H     2.823770    -2.881605     3.337037
 C     1.298109     0.138307     3.049527
 H     0.907478     0.965061     3.642994
 C     1.904631    -0.966982     3.657562
 O     2.062415    -1.116372     4.984812
 C     1.603140    -0.103770     5.837732
 H     0.511686     0.040457     5.751637
 H     1.838633    -0.423451     6.860441
 H     2.106058     0.858701     5.638708
 H     3.012757    -2.627794    -1.278267
 H     2.875170    -1.624147    -2.704454
 C     4.378957    -0.951979    -1.342437
 C     4.937225    -0.056408    -2.266433
 H     4.416532     0.138553    -3.207711
 C     5.101906    -1.213724    -0.169515
 H     4.709460    -1.917218     0.564967
 C     6.144864     0.590260    -2.019988
 H     6.574978     1.292534    -2.735982
 C     6.313476    -0.579773     0.092430
 H     6.875015    -0.779695     1.006712
 C     6.816741     0.325714    -0.833682
 F     7.971602     0.940253    -0.584976
 H     2.441268     0.959468    -2.345843
 H     0.793197     1.348331    -1.878984
 C     2.261190     2.055705    -0.499948
 C     1.478320     3.191180    -0.262248
 H     0.535029     3.305864    -0.795803
 C     3.464550     1.931661     0.206034
 H     4.093367     1.054929     0.063499
 C     1.861503     4.170482     0.650692
 H     1.237575     5.047062     0.836436
 C     3.868196     2.901772     1.118018
 H     4.803721     2.802670     1.671409
 C     3.058540     4.010162     1.334899
 F     3.437720     4.934216     2.219168
 C    -1.968782     2.273217     0.671885
 H    -2.080520     1.726005     1.609594
 C    -1.739597     2.337212    -1.717763
 H    -1.637484     1.820798    -2.678049
 C    -1.959491     3.660043     0.711408
 H    -2.039011     4.200920     1.656099
 C    -1.755567     3.731040    -1.697776
 H    -1.664613     4.279829    -2.635291
 C    -1.854600     4.403724    -0.471532
 O    -1.833659     5.741583    -0.334551
 C    -1.707915     6.539007    -1.481139
 H    -2.550436     6.389302    -2.178536
 H    -1.710715     7.581500    -1.139807
 H    -0.762145     6.340187    -2.014899
 H    -3.691816     0.196109    -2.351586
 H    -3.930122    -1.374987    -1.599960
 C    -4.765652     0.273081    -0.480281
 C    -5.450890    -0.524661     0.446952
 H    -5.258484    -1.600318     0.480847
 C    -5.047487     1.646672    -0.501629
 H    -4.530683     2.291457    -1.215870
 C    -6.379340     0.021422     1.329799
 H    -6.917088    -0.597598     2.050063
 C    -5.971936     2.208975     0.373260
 H    -6.194071     3.277437     0.359428
 C    -6.625310     1.387555     1.283514
 F    -7.510328     1.920510     2.125406
 H    -1.313194    -0.337049     1.569467
 H    -3.070792    -0.521111     1.421341
 C    -1.909179    -2.331253     1.134725
 C    -2.655345    -3.260688     0.396909
 H    -3.394733    -2.920419    -0.328957
 C    -0.959121    -2.822694     2.035896
 H    -0.359324    -2.119072     2.615637
 C    -2.470424    -4.630684     0.559027
 H    -3.046636    -5.356073    -0.017693
 C    -0.754027    -4.189086     2.206518
 H    -0.006239    -4.568964     2.904822
 C    -1.517253    -5.079399     1.464478
 F    -1.328176    -6.389785     1.616568
