  90
scf done:    -2578.588458
 C     1.728126    -1.008264    -2.621596
 H     1.321744    -0.709261    -3.602672
 H     2.442610    -0.210903    -2.356183
 C     2.475775    -2.328992    -2.747844
 H     1.826069    -3.139830    -3.114077
 H     3.330109    -2.254714    -3.446527
 H     2.889368    -2.666515    -1.784234
Rh     0.116427    -1.171582    -1.220797
 C     3.166175     0.000875     0.222810
 O     1.472618     1.783627    -0.624421
 O     0.853602     0.501392     1.545697
 C    -2.451770     0.195128     0.752213
 O    -2.858653    -2.163270    -0.528274
 O    -1.559704    -2.061169     1.674285
 P    -1.633132    -1.335003     0.196621
 P     1.377148     0.273915     0.005967
 C    -0.790109    -2.038193    -2.615699
 O    -1.335161    -2.496574    -3.511590
 C     3.613527    -1.291649     0.518988
 H     2.895725    -2.111997     0.586315
 C     4.102424     1.035269     0.102104
 H     3.759320     2.039250    -0.153218
 C     4.966102    -1.552058     0.714663
 H     5.330758    -2.554915     0.942570
 C     5.458453     0.788511     0.293711
 H     6.203987     1.580558     0.203269
 C     5.871024    -0.503250     0.601184
 F     7.165837    -0.742553     0.784089
 C     0.434003     2.313478    -1.440540
 H    -0.034477     1.481251    -1.999395
 H    -0.335400     2.765917    -0.792321
 C     1.019460     3.343218    -2.378486
 H     0.183870     3.799833    -2.937866
 H     1.468766     4.156939    -1.781310
 C     2.049610     2.779271    -3.346350
 H     1.586960     1.966777    -3.932555
 H     2.856618     2.301007    -2.767619
 C     2.631741     3.828762    -4.278099
 H     1.848577     4.299772    -4.894180
 H     3.131435     4.632835    -3.713643
 H     3.374722     3.393150    -4.962920
 C     1.479906     1.337611     2.511668
 H     1.118181     0.969607     3.484884
 H     2.572706     1.185489     2.486008
 C     1.135134     2.805686     2.341239
 H     1.623178     3.360068     3.162442
 H     1.581563     3.175704     1.404411
 C    -0.361955     3.072338     2.338702
 H    -0.789662     2.756363     3.306307
 H    -0.831759     2.419945     1.586668
 C    -0.726860     4.519898     2.059923
 H    -0.295381     5.201610     2.810680
 H    -0.352717     4.840564     1.073558
 H    -1.817674     4.664924     2.063988
 C    -2.864501     0.413746     2.069649
 H    -2.654458    -0.345019     2.825144
 C    -2.705988     1.169991    -0.219917
 H    -2.380178     0.996851    -1.249411
 C    -3.529494     1.587946     2.413633
 H    -3.854275     1.786442     3.436639
 C    -3.369510     2.347252     0.109973
 H    -3.576021     3.121303    -0.631180
 C    -3.770292     2.537404     1.428237
 F    -4.382073     3.673684     1.759048
 C    -4.118014    -2.415084     0.083344
 H    -4.419342    -3.414900    -0.269490
 H    -4.001563    -2.472500     1.178913
 C    -5.171473    -1.388747    -0.294465
 H    -6.136866    -1.741965     0.109857
 H    -4.961655    -0.434695     0.215208
 C    -5.288449    -1.147456    -1.792021
 H    -5.561691    -2.090646    -2.297406
 H    -4.293685    -0.880367    -2.184380
 C    -6.290967    -0.059213    -2.137407
 H    -7.301928    -0.311166    -1.777940
 H    -6.007917     0.899324    -1.672212
 H    -6.355699     0.103354    -3.223920
 C    -0.828716    -3.273138     1.815385
 H    -1.373283    -3.871612     2.564065
 H    -0.838397    -3.836731     0.866276
 C     0.592360    -3.009655     2.260692
 H     1.120291    -3.977259     2.330041
 H     1.086610    -2.436110     1.459168
 C     0.697231    -2.247377     3.572088
 H     0.184306    -2.816809     4.368018
 H     0.144859    -1.300633     3.462257
 C     2.132858    -1.964177     3.981983
 H     2.706321    -2.895854     4.116044
 H     2.653326    -1.367377     3.216860
 H     2.182258    -1.406515     4.929718
