  86
scf done:    -3000.068880
 C    -1.289663     1.030840    -3.381763
 H    -1.309508     0.515732    -4.355111
 H    -2.334573     1.074185    -3.041219
 C    -0.735146     2.438545    -3.543391
 H     0.306063     2.439373    -3.905238
 H    -1.326974     3.033049    -4.265491
 H    -0.750496     3.003873    -2.594847
Rh    -0.008773     0.147819    -1.962957
 C    -1.910725     1.459801     0.725885
 C    -3.460231    -0.146042    -1.087011
 C    -1.716513    -1.472052     0.598151
 C     1.818790    -1.426114     0.795856
 C     3.437057    -0.024464    -1.109015
 C     1.806372     1.468444     0.609648
 P     1.730738    -0.057983    -0.412771
 P    -1.754357     0.050108    -0.423511
 C     0.856394    -0.648981    -3.385161
 O     1.277932    -1.307857    -4.231770
 C    -2.387025     2.676640     0.203976
 H    -2.779531     2.713786    -0.816294
 C    -1.396269     1.460678     2.023251
 H    -1.005469     0.537071     2.452765
 C    -2.359651     3.837010     0.957917
 H    -2.728078     4.783346     0.557409
 C    -1.352434     2.624778     2.790638
 H    -0.926307     2.584602     3.792996
 C    -1.829995     3.826120     2.258051
 O    -1.809632     5.007025     2.898947
 C    -1.204721     5.083819     4.162641
 H    -0.135695     4.818288     4.114554
 H    -1.295501     6.127430     4.488548
 H    -1.711245     4.436365     4.899551
 C    -3.621107    -0.950243    -2.222482
 H    -2.731907    -1.338015    -2.728704
 C    -4.595325     0.360472    -0.446687
 H    -4.489944     0.983848     0.444197
 C    -4.887763    -1.245366    -2.713314
 H    -5.029126    -1.867387    -3.598872
 C    -5.870428     0.080356    -0.933399
 H    -6.767039     0.472017    -0.449594
 C    -5.998396    -0.721241    -2.060639
 F    -7.214287    -0.992342    -2.529269
 C    -1.055676    -2.578747     0.053381
 H    -0.507919    -2.451300    -0.885605
 C    -2.429758    -1.625616     1.792873
 H    -2.989265    -0.785907     2.211705
 C    -1.087189    -3.812539     0.692349
 H    -0.577595    -4.682151     0.275693
 C    -2.441804    -2.848196     2.459503
 H    -2.977001    -2.982972     3.401113
 C    -1.763922    -3.924952     1.899090
 F    -1.760394    -5.096537     2.534383
 C     1.276206    -1.317051     2.085160
 H     0.905168    -0.353701     2.437276
 C     2.270317    -2.682878     0.379804
 H     2.683494    -2.806230    -0.625369
 C     1.189753    -2.415468     2.923348
 H     0.752051    -2.336422     3.919837
 C     2.194032    -3.796900     1.213911
 H     2.551887    -4.760344     0.849889
 C     1.635445    -3.671332     2.491725
 O     1.469322    -4.686627     3.356928
 C     1.721756    -5.995109     2.925103
 H     2.783992    -6.147645     2.665590
 H     1.463389    -6.656600     3.761213
 H     1.096093    -6.261028     2.055545
 C     3.644656     0.637241    -2.324668
 H     2.785607     1.044535    -2.864448
 C     4.545968    -0.532353    -0.420198
 H     4.409507    -1.045329     0.534385
 C     4.923687     0.783160    -2.852975
 H     5.096195     1.293849    -3.801895
 C     5.830269    -0.401674    -0.940355
 H     6.702504    -0.800499    -0.419216
 C     6.001723     0.255833    -2.153071
 F     7.227839     0.382075    -2.654041
 C     2.575191     1.575182     1.775008
 H     3.144956     0.716406     2.137253
 C     1.120979     2.596693     0.145182
 H     0.529744     2.520882    -0.772532
 C     2.619788     2.768176     2.489912
 H     3.202426     2.865709     3.407771
 C     1.172071     3.802935     0.836815
 H     0.628718     4.684308     0.493902
 C     1.909734     3.862637     2.010438
 F     1.929150     5.000200     2.710570
