  98
scf done:    -2760.440025
 C    -1.414581     0.286084    -3.587771
 H    -0.914399     0.119695    -4.554852
 H    -2.302726    -0.363204    -3.587230
 C    -1.824754     1.745292    -3.473744
 H    -2.320938     2.109728    -4.393040
 H    -2.540377     1.902501    -2.650508
 H    -0.962356     2.413437    -3.299727
Rh    -0.086250    -0.107111    -2.005232
 C    -1.787082     1.497155     0.732089
 C    -3.573363    -0.011479    -0.968732
 C    -1.815014    -1.413121     0.660264
 C     1.840169    -1.349548     0.789115
 C     3.354669    -0.023537    -1.242785
 C     1.805700     1.552454     0.451674
 P     1.682540    -0.030788    -0.467007
 P    -1.818132     0.071405    -0.418357
 C     0.827910    -1.183662    -3.177933
 O     1.302381    -2.005120    -3.834670
 C    -2.112516     2.779094     0.253020
 H    -2.482032     2.902424    -0.767698
 C    -1.275060     1.401096     2.026675
 H    -1.007990     0.423952     2.430235
 C    -1.950632     3.904688     1.043783
 H    -2.203296     4.899256     0.671361
 C    -1.082344     2.527319     2.825348
 H    -0.658032     2.403125     3.821391
 C    -1.414271     3.791352     2.334019
 O    -1.237246     4.941992     3.015781
 C    -0.737853     4.872860     4.323114
 H     0.270151     4.423713     4.352773
 H    -0.679079     5.904288     4.693085
 H    -1.405839     4.292959     4.983962
 C    -3.912361    -1.073454    -1.819378
 H    -3.136899    -1.778199    -2.131655
 C    -4.585762     0.854307    -0.550370
 H    -4.362593     1.670310     0.139333
 C    -5.220817    -1.247923    -2.250464
 H    -5.460178    -2.086034    -2.911145
 C    -5.896540     0.676885    -0.993175
 H    -6.673315     1.367267    -0.652171
 C    -6.238119    -0.368710    -1.854174
 C    -7.642335    -0.545129    -2.352492
 H    -8.355583     0.058224    -1.773349
 H    -7.727079    -0.237967    -3.408110
 H    -7.959102    -1.597769    -2.296702
 C    -2.591831    -1.496753     1.821522
 H    -3.203766    -0.646264     2.132980
 C    -1.099059    -2.540161     0.247131
 H    -0.512186    -2.475832    -0.674297
 C    -2.593862    -2.660763     2.583928
 H    -3.190661    -2.703339     3.499479
 C    -1.131296    -3.710349     0.997771
 H    -0.562994    -4.579510     0.656584
 C    -1.853932    -3.783901     2.192907
 C    -1.797700    -5.016082     3.046081
 H    -1.816847    -5.930582     2.434112
 H    -0.860071    -5.028539     3.626751
 H    -2.635338    -5.059794     3.756594
 C     1.358519    -1.215709     2.099250
 H     0.987295    -0.249386     2.442603
 C     2.299524    -2.606920     0.384334
 H     2.665124    -2.748101    -0.636696
 C     1.338699    -2.293852     2.970378
 H     0.951537    -2.194045     3.985853
 C     2.295780    -3.696983     1.251929
 H     2.662436    -4.659828     0.895644
 C     1.801276    -3.547102     2.552362
 O     1.719696    -4.547703     3.455469
 C     2.159836    -5.824858     3.085994
 H     3.230749    -5.827807     2.817510
 H     2.011066    -6.474107     3.958064
 H     1.580024    -6.229139     2.237304
 C     3.493986     0.509491    -2.527637
 H     2.600986     0.831145    -3.071093
 C     4.507103    -0.423357    -0.556749
 H     4.427564    -0.832944     0.453057
 C     4.750415     0.629359    -3.114253
 H     4.834135     1.049708    -4.120346
 C     5.759527    -0.309534    -1.152215
 H     6.646997    -0.633060    -0.600619
 C     5.905490     0.215415    -2.442092
 C     7.254022     0.303485    -3.093979
 H     7.469916    -0.610111    -3.673171
 H     7.309866     1.151592    -3.791786
 H     8.056011     0.415920    -2.350018
 C     2.586672     1.740107     1.596231
 H     3.115791     0.896073     2.044918
 C     1.172282     2.662346    -0.116769
 H     0.560364     2.523620    -1.013806
 C     2.701507     3.003764     2.171364
 H     3.307942     3.130012     3.072990
 C     1.308392     3.923703     0.449113
 H     0.798546     4.775025    -0.008973
 C     2.067724     4.117440     1.608590
 C     2.195075     5.486324     2.209972
 H     1.208382     5.965863     2.299328
 H     2.656972     5.451320     3.207044
 H     2.819173     6.138989     1.577786
