  94
scf done:    -2832.334963
 C    -0.323576    -3.492646     1.239720
 H    -0.479546    -4.397938     0.630793
 H     0.741913    -3.520009     1.523993
 C    -1.193132    -3.532365     2.488843
 H    -0.969553    -4.414008     3.118425
 H    -1.041440    -2.643515     3.122640
 H    -2.267002    -3.571141     2.244253
Rh    -0.832447    -1.752603     0.096945
 C     1.211721    -0.708443     2.704828
 O     2.503399    -1.848702     0.738522
 O     1.580918     0.491643     0.275549
 C    -0.619603     0.941818    -2.263201
 O    -2.985363     0.452836    -1.310687
 O    -1.280213     1.387570     0.372397
 P    -1.416201     0.211591    -0.807933
 P     1.117278    -0.966482     0.918967
 C    -2.221493    -2.798685    -0.629929
 O    -3.009561    -3.478399    -1.105118
 C     0.137030    -0.017984     3.280939
 C     2.279411    -1.138113     3.496040
 C     1.208411    -0.176109     5.437382
 C     2.271912    -0.871965     4.863900
 C     0.141656     0.253096     4.646011
 H    -0.689741     0.316607     2.646519
 H    -0.692481     0.796302     5.095904
 H     1.208161     0.030747     6.510389
 H     3.103929    -1.209232     5.486485
 H     3.108157    -1.675934     3.033318
 C     2.954495    -2.314814    -0.474148
 C     4.326419    -2.241809    -0.709762
 H     4.970952    -1.811249     0.058692
 C     2.104838    -2.852762    -1.439013
 H     1.027908    -2.910012    -1.239099
 C     4.842710    -2.699140    -1.918162
 H     5.920017    -2.634165    -2.095139
 C     2.639551    -3.294321    -2.647603
 H     1.963147    -3.705246    -3.402316
 C     4.011572    -3.229069    -2.913484
 C     4.578219    -3.741781    -4.205913
 H     5.482549    -3.188296    -4.498620
 H     3.848983    -3.662535    -5.025166
 H     4.859674    -4.804927    -4.121309
 C     2.723099     1.180981     0.602702
 C     3.811190     1.136056    -0.267060
 H     3.747323     0.520417    -1.165642
 C     2.773029     1.970715     1.749796
 H     1.910014     2.010284     2.415395
 C     4.954587     1.872358     0.025105
 H     5.805305     1.829149    -0.660893
 C     3.927070     2.699799     2.027730
 H     3.961538     3.313090     2.932268
 C     5.037062     2.665407     1.177052
 C     6.266278     3.476978     1.468019
 H     7.182753     2.932105     1.196607
 H     6.330863     3.743276     2.532639
 H     6.265866     4.418061     0.892825
 C    -1.154553     2.040618    -2.949082
 C     0.581683     0.370332    -2.694481
 C     0.735547     2.011621    -4.454806
 C     1.259484     0.906020    -3.786975
 C    -0.472454     2.573722    -4.038689
 H    -2.103071     2.473952    -2.627507
 H    -0.887029     3.435049    -4.567655
 H     1.266708     2.434822    -5.311136
 H     2.196265     0.451318    -4.117859
 H     0.982892    -0.500553    -2.172129
 C    -4.055975    -0.091066    -0.656288
 C    -5.157767    -0.459687    -1.429064
 H    -5.115649    -0.304379    -2.508602
 C    -4.079608    -0.282531     0.725687
 H    -3.223289     0.012560     1.334020
 C    -6.270483    -1.025012    -0.819198
 H    -7.125758    -1.314345    -1.436381
 C    -5.201926    -0.860651     1.318204
 H    -5.205881    -1.015451     2.400530
 C    -6.313861    -1.244511     0.564990
 C    -7.511014    -1.886359     1.204245
 H    -7.596981    -2.945891     0.912390
 H    -8.445607    -1.390148     0.899578
 H    -7.449819    -1.848516     2.300941
 C    -1.402203     2.734079     0.139060
 C    -2.657821     3.337606     0.156198
 H    -3.544054     2.727968     0.342888
 C    -0.257497     3.492538    -0.100446
 H     0.712645     2.994584    -0.121090
 C    -2.760021     4.707737    -0.074190
 H    -3.747757     5.177096    -0.065141
 C    -0.378314     4.859897    -0.325083
 H     0.523110     5.448058    -0.518326
 C    -1.627509     5.493500    -0.318377
 C    -1.743090     6.974667    -0.536103
 H    -2.734597     7.249558    -0.923952
 H    -0.985717     7.337867    -1.246404
 H    -1.595625     7.527200     0.407155
