 102
scf done:    -2388.891612
 C    -1.122701     1.301577    -3.050714
 H    -0.809171     1.095857    -4.085918
 H    -2.193629     1.058449    -3.017954
 C    -0.905031     2.776845    -2.746108
 H     0.158692     3.058001    -2.812802
 H    -1.454692     3.435538    -3.445896
 H    -1.242357     3.051193    -1.730550
Rh     0.037124     0.278589    -1.613950
 C    -1.562878     1.116586     1.460259
 C    -3.428862     0.764436    -0.695467
 C    -1.966086    -1.599515     0.489337
 C     1.563644    -1.540842     1.158254
 C     3.337770    -0.645009    -0.888530
 C     2.009679     1.338009     0.984478
 P     1.726034    -0.175066    -0.058169
 P    -1.763836     0.154593    -0.095732
 C     0.940583    -0.434340    -3.037095
 O     1.412903    -1.022909    -3.912537
 C    -1.316981     0.541403     2.712653
 C    -1.586802     2.517524     1.368109
 C    -1.138151     2.728246     3.732713
 C    -1.391080     3.314532     2.491460
 C    -1.097382     1.340413     3.835916
 H    -1.281483    -0.542260     2.823873
 H    -0.901205     0.867896     4.801838
 H    -0.974607     3.352636     4.614017
 H    -1.426513     4.402340     2.395549
 H    -1.755922     2.993580     0.398311
 H    -3.144063     1.689425    -1.231358
 C    -4.480699     1.152381     0.346629
 H    -4.056024     1.828196     1.102685
 H    -4.820496     0.255796     0.889243
 C    -5.677237     1.817297    -0.330816
 H    -6.438678     2.077034     0.422739
 H    -5.348478     2.771687    -0.781058
 C    -6.282069     0.933194    -1.415973
 H    -7.110378     1.456196    -1.921073
 H    -6.723549     0.035964    -0.944773
 C    -5.229982     0.494694    -2.428439
 H    -4.869125     1.373223    -2.993162
 H    -5.670370    -0.191309    -3.170075
 C    -4.043889    -0.172801    -1.740244
 H    -4.394156    -1.092699    -1.242622
 H    -3.287962    -0.483757    -2.476742
 H    -1.071446    -1.736863     1.124523
 C    -1.826673    -2.601578    -0.663223
 H    -0.901086    -2.379921    -1.219416
 H    -2.651432    -2.462889    -1.380123
 C    -1.841601    -4.039471    -0.155136
 H    -1.795498    -4.735315    -1.008734
 H    -0.933446    -4.215692     0.443929
 C    -3.061727    -4.333003     0.709457
 H    -3.019263    -5.364112     1.096875
 H    -3.976231    -4.270607     0.091488
 C    -3.169457    -3.335351     1.856693
 H    -2.300007    -3.455236     2.528985
 H    -4.066843    -3.536753     2.464366
 C    -3.205731    -1.902479     1.333229
 H    -4.107977    -1.779769     0.712120
 H    -3.305676    -1.188912     2.165144
 C     1.556152    -2.853415     0.660012
 C     1.395891    -1.352715     2.535455
 C     1.229520    -3.740970     2.883445
 C     1.219679    -2.443145     3.388364
 C     1.407169    -3.941825     1.513664
 H     1.660757    -3.024368    -0.415124
 H     1.418344    -4.955307     1.105555
 H     1.101554    -4.594489     3.553088
 H     1.084327    -2.272857     4.459508
 H     1.392534    -0.347138     2.956794
 H     2.993865    -1.440825    -1.576003
 C     4.457376    -1.245405    -0.036175
 H     4.074074    -2.056510     0.600334
 H     4.865817    -0.481467     0.643744
 C     5.577596    -1.768315    -0.933457
 H     6.389693    -2.185866    -0.316050
 H     5.188640    -2.604981    -1.541842
 C     6.116414    -0.682678    -1.858946
 H     6.889645    -1.095961    -2.526841
 H     6.615549     0.093484    -1.250190
 C     5.000063    -0.035384    -2.671345
 H     4.574809    -0.772340    -3.375608
 H     5.398574     0.787700    -3.286403
 C     3.883394     0.480820    -1.770078
 H     4.281866     1.285039    -1.127266
 H     3.074093     0.926288    -2.369517
 H     1.154142     1.308577     1.685194
 C     1.835523     2.613146     0.150454
 H     0.878008     2.567950    -0.394797
 H     2.620397     2.663064    -0.621769
 C     1.902903     3.862405     1.022171
 H     1.825047     4.762201     0.390386
 H     1.028701     3.872513     1.694004
 C     3.172755     3.906542     1.863850
 H     3.169843     4.794724     2.516582
 H     4.050964     4.011290     1.200769
 C     3.325159     2.635628     2.691467
 H     2.498622     2.573726     3.422992
 H     4.259791     2.662357     3.275228
 C     3.300804     1.396587     1.801224
 H     4.160991     1.442105     1.112893
 H     3.433308     0.483895     2.402180
