 110
scf done:    -2243.796793
 C    -1.959692     1.097248    -2.453152
 H    -2.487885     0.418607    -3.145230
 H    -2.744385     1.522767    -1.808174
 C    -1.309135     2.228135    -3.242059
 H    -0.597491     1.852497    -3.995326
 H    -2.054147     2.844203    -3.781466
 H    -0.744233     2.916475    -2.590601
Rh    -0.477271     0.091032    -1.309098
 C    -1.475163     1.962035     1.534950
 C    -3.613987     0.392770     0.338050
 C    -1.591185    -0.869880     1.962254
 C     1.876287    -2.252481     0.140519
 C     2.906099     0.038686    -1.375689
 C     1.909255     0.441194     1.312452
 P     1.524044    -0.470079    -0.260808
 P    -1.784671     0.375042     0.609939
 C     0.059044    -0.617305    -2.924469
 O     0.308313    -1.161029    -3.911141
 H    -0.544005     1.748680     2.092122
 C    -2.533932     2.382168     2.553418
 H    -2.725327     1.572938     3.276984
 H    -3.488662     2.570994     2.032934
 C    -2.112284     3.653968     3.286163
 H    -2.894813     3.955110     4.001580
 H    -1.207480     3.443325     3.885315
 C    -1.816510     4.787382     2.309815
 H    -1.487051     5.687114     2.854263
 H    -2.749814     5.065128     1.787079
 C    -0.771107     4.374317     1.279621
 H     0.195541     4.209720     1.789653
 H    -0.603172     5.185076     0.552552
 C    -1.171677     3.095493     0.552505
 H    -2.062817     3.287474    -0.072026
 H    -0.383126     2.772846    -0.148763
 H    -3.839224     1.385040    -0.087764
 H    -4.116190     0.352615     1.317343
 C    -4.116711    -0.693349    -0.610531
 H    -3.329086    -0.906896    -1.352469
 H    -4.277976    -1.633401    -0.054228
 C    -5.409631    -0.333668    -1.344036
 H    -5.214245     0.603993    -1.897722
 C    -5.757454    -1.410960    -2.363567
 H    -4.935475    -1.561026    -3.080382
 H    -6.661553    -1.148352    -2.934742
 H    -5.947514    -2.376902    -1.865757
 C    -6.568960    -0.086337    -0.385428
 H    -7.488100     0.180392    -0.930158
 H    -6.354445     0.731371     0.319777
 H    -6.785119    -0.991364     0.207883
 H    -2.315088    -0.634531     2.761930
 H    -0.588018    -0.699029     2.383880
 C    -1.745209    -2.317264     1.517771
 H    -2.721081    -2.445578     1.024817
 H    -0.996413    -2.539258     0.737737
 C    -1.650863    -3.345590     2.649657
 H    -2.439554    -3.094306     3.384411
 C    -1.940142    -4.743427     2.114567
 H    -2.923246    -4.790825     1.621186
 H    -1.928839    -5.494557     2.919445
 H    -1.182384    -5.040483     1.370471
 C    -0.313613    -3.315097     3.381958
 H    -0.301472    -4.040913     4.209608
 H    -0.092778    -2.325963     3.811159
 H     0.513829    -3.579344     2.702948
 H     1.197522    -2.443028     0.991904
 C     3.295951    -2.606975     0.583748
 H     3.584842    -2.013879     1.464323
 H     4.007678    -2.348304    -0.219946
 C     3.427672    -4.094039     0.907710
 H     4.467305    -4.324854     1.192061
 H     2.806439    -4.325690     1.792179
 C     2.982591    -4.968373    -0.257598
 H     3.059738    -6.034654     0.010046
 H     3.666781    -4.811463    -1.111316
 C     1.561481    -4.624132    -0.685575
 H     0.864261    -4.879980     0.133202
 H     1.257593    -5.233497    -1.551714
 C     1.416009    -3.143384    -1.016755
 H     2.012545    -2.912909    -1.917935
 H     0.373271    -2.898506    -1.273704
 H     2.874532    -0.651491    -2.235891
 H     3.876475    -0.107640    -0.877366
 C     2.726749     1.472526    -1.861382
 H     1.687248     1.583583    -2.217598
 H     2.827483     2.174008    -1.012143
 C     3.684542     1.904228    -2.972248
 H     3.561040     1.187033    -3.805667
 C     3.299480     3.286749    -3.485637
 H     2.255940     3.305993    -3.836297
 H     3.944618     3.601781    -4.320482
 H     3.396418     4.041619    -2.687016
 C     5.143385     1.868563    -2.530523
 H     5.813986     2.191493    -3.342039
 H     5.459492     0.859768    -2.224368
 H     5.308366     2.545438    -1.674589
 H     1.473190    -0.163817     2.126917
 H     1.298831     1.354151     1.256487
 C     3.347795     0.815005     1.645743
 H     4.004299    -0.065506     1.573885
 H     3.725729     1.531420     0.896011
 C     3.522673     1.432527     3.037326
 H     3.182022     0.682550     3.776831
 C     4.996472     1.716325     3.304086
 H     5.608427     0.807408     3.194279
 H     5.153993     2.108008     4.320846
 H     5.384801     2.466154     2.594719
 C     2.682941     2.691146     3.229884
 H     2.869092     3.143128     4.216252
 H     1.603669     2.488078     3.162590
 H     2.928308     3.448077     2.465545
