  56
scf done:    -1686.613313
 C     2.929021    -1.897478    -0.057333
 H     3.725331    -1.867595     0.708077
 H     2.292959    -2.753262     0.214283
 C     3.539033    -2.169467    -1.427599
 H     4.286789    -1.412148    -1.712304
 H     4.045091    -3.152813    -1.469065
 H     2.777929    -2.171381    -2.226079
Rh     1.813004    -0.092121     0.069875
 C    -1.487030    -1.548921     0.487027
 C     0.518310    -2.846642     2.020555
 C    -0.320086    -0.282484     2.808268
 C    -1.141731     1.947613    -0.141599
 C     0.968509     2.977834     1.556068
 C     1.227853     3.110266    -1.234643
 P     0.683634     1.934332     0.072468
 P     0.132177    -1.204458     1.289692
 C     3.386644     0.741698    -0.396703
 O     4.384472     1.289205    -0.576912
 C    -2.689096    -1.154671     1.086523
 H    -2.678554    -0.615786     2.034466
 C    -1.518662    -2.222411    -0.755027
 C    -0.270381    -2.679196    -1.448998
 H     0.120694    -3.610955    -1.008336
 H     0.538800    -1.933287    -1.366096
 H    -0.459216    -2.876123    -2.513266
 C    -3.916240    -1.419138     0.486073
 H    -4.839266    -1.092863     0.970279
 C    -2.763581    -2.472867    -1.343409
 H    -2.792725    -2.990247    -2.306542
 C    -3.953774    -2.082908    -0.735863
 H    -4.909455    -2.293213    -1.222144
 H     0.658882    -3.597632     1.232999
 H     1.453942    -2.773946     2.593560
 H    -0.304363    -3.165892     2.676585
 H    -0.983774    -0.863264     3.465728
 H     0.612972    -0.056994     3.343729
 H    -0.810069     0.663019     2.540632
 C    -1.981680     2.514304     0.825980
 H    -1.553779     2.993101     1.708915
 C    -1.712895     1.332549    -1.278939
 C    -0.875047     0.710758    -2.357070
 H     0.062865     0.291675    -1.950433
 H    -0.598919     1.453119    -3.123994
 H    -1.425161    -0.095633    -2.860484
 C    -3.367437     2.488553     0.685283
 H    -4.001738     2.937392     1.453383
 C    -3.105337     1.324352    -1.403816
 H    -3.549824     0.840372    -2.277236
 C    -3.930873     1.894473    -0.439500
 H    -5.015941     1.864113    -0.563536
 H     0.621605     2.470376     2.465628
 H     2.057207     3.104543     1.644421
 H     0.494291     3.967869     1.475901
 H     0.642050     4.040834    -1.203094
 H     2.292375     3.336237    -1.074889
 H     1.127745     2.646768    -2.224210
