  96
scf done:    -2610.107108
 C    -1.164342     0.731281    -3.211347
 H    -1.575841    -0.074096    -3.841516
 H    -2.033066     1.284426    -2.823860
 C    -0.291062     1.655181    -4.048257
 H     0.516430     1.110501    -4.563600
 H    -0.877425     2.181001    -4.825743
 H     0.192180     2.439030    -3.439194
Rh    -0.007565     0.025963    -1.598052
 C    -1.691849     1.609009     1.186144
 C    -3.483345     0.566169    -0.788114
 C    -2.121837    -1.274877     0.745285
 C     1.992794    -1.995348     0.605271
 C     3.377587    -0.040104    -0.994317
 C     2.095925     0.868942     1.265915
 P     1.782645    -0.310153    -0.103940
 P    -1.786018     0.312153    -0.115290
 C     0.764626    -1.099318    -2.839817
 O     1.105644    -1.943016    -3.547577
 C    -1.633441     1.305770     2.550636
 H    -1.692184     0.266832     2.875521
 C    -1.586888     2.959013     0.771700
 C    -1.550109     3.341247    -0.677749
 H    -2.506137     3.138884    -1.185116
 H    -0.790246     2.753033    -1.221835
 H    -1.317895     4.407799    -0.799911
 C    -1.499527     2.308038     3.508719
 H    -1.448072     2.043189     4.567201
 C    -1.482730     3.950566     1.751825
 H    -1.414500     4.994972     1.434421
 C    -1.439388     3.638491     3.108651
 H    -1.345865     4.435994     3.849810
 C    -3.890289    -0.279289    -1.828831
 H    -3.178359    -0.999680    -2.240589
 C    -4.405498     1.473642    -0.264377
 H    -4.118925     2.132326     0.559325
 C    -5.182440    -0.210460    -2.331524
 H    -5.478493    -0.881438    -3.142945
 C    -5.700226     1.542602    -0.779755
 H    -6.407314     2.261362    -0.355996
 C    -6.112068     0.706767    -1.820469
 C    -7.498488     0.788225    -2.388379
 H    -7.966471    -0.206703    -2.445962
 H    -8.146765     1.435555    -1.781289
 H    -7.482505     1.196282    -3.412309
 C    -3.139014    -1.407578     1.701068
 H    -3.739823    -0.540449     1.986503
 C    -1.423889    -2.416108     0.345963
 H    -0.651602    -2.316148    -0.422337
 C    -3.398281    -2.642044     2.284202
 H    -4.184422    -2.724569     3.040251
 C    -1.700935    -3.654367     0.921137
 H    -1.127744    -4.528937     0.602802
 C    -2.679932    -3.787864     1.908875
 C    -2.985279    -5.122553     2.522729
 H    -3.834919    -5.604674     2.010752
 H    -2.126846    -5.805189     2.447084
 H    -3.258377    -5.026625     3.584008
 C     2.641091    -2.938381    -0.211253
 H     3.063190    -2.619465    -1.166831
 C     1.402558    -2.421596     1.813914
 C     0.596995    -1.530875     2.714110
 H     0.259128    -0.620921     2.208204
 H     1.178887    -1.209759     3.592619
 H    -0.292565    -2.069085     3.073904
 C     2.755251    -4.269792     0.168115
 H     3.264071    -4.980019    -0.487447
 C     1.548135    -3.766288     2.184556
 H     1.095185    -4.096298     3.123834
 C     2.217092    -4.684724     1.385479
 H     2.304853    -5.726419     1.703698
 C     3.379173     0.701057    -2.177538
 H     2.426257     1.028293    -2.603260
 C     4.607911    -0.445456    -0.458821
 H     4.637963    -1.016689     0.471943
 C     4.577073     1.017806    -2.817081
 H     4.551892     1.599373    -3.742710
 C     5.797191    -0.136888    -1.106164
 H     6.745111    -0.471284    -0.674669
 C     5.805165     0.599870    -2.299767
 C     7.095320     0.908253    -3.000695
 H     7.859162     1.268987    -2.294996
 H     7.504313     0.007226    -3.487113
 H     6.959380     1.672436    -3.778700
 C     2.890538     0.574066     2.377595
 H     3.306603    -0.428900     2.501832
 C     1.599915     2.166740     1.120278
 H     0.997785     2.411709     0.242550
 C     3.145802     1.548635     3.337965
 H     3.758530     1.297700     4.208491
 C     1.870453     3.140326     2.074835
 H     1.467290     4.147027     1.941714
 C     2.635275     2.845585     3.208710
 C     2.875453     3.888766     4.259731
 H     3.189387     4.844444     3.812821
 H     1.952812     4.086927     4.830436
 H     3.649008     3.574987     4.974662
