  66
scf done:    -1617.650248
 C    -1.559160     2.579912     0.331681
 H    -1.251789     3.551817    -0.084985
 H    -2.577708     2.413483    -0.044255
 C    -1.564061     2.666685     1.850998
 H    -2.182904     3.507703     2.219128
 H    -1.962736     1.752229     2.320464
 H    -0.551931     2.820080     2.262370
Rh    -0.173413     1.049714    -0.117967
 C    -1.840340    -1.769029     1.490024
 C    -3.621514     0.009984     0.077487
 C    -1.873751    -1.754368    -1.429365
 C     2.337411    -0.728553    -1.825708
 C     3.174614     0.894696     0.505114
 C     1.873563    -1.809685     0.888810
 P     1.805392    -0.231555    -0.114569
 P    -1.842997    -0.593731     0.052512
 C     0.640636     2.278891    -1.207339
 O     1.058712     2.965902    -2.038083
 H    -0.868343    -2.282588     1.464019
 C    -2.009341    -1.073057     2.831542
 H    -2.989555    -0.581126     2.923530
 H    -1.243734    -0.295792     2.974702
 H    -2.608272    -2.546245     1.346357
 H    -1.920809    -1.790754     3.661668
 H    -3.604503     0.799247     0.848269
 C    -4.009218     0.659826    -1.248504
 H    -4.935667     1.242984    -1.125660
 H    -3.227802     1.336762    -1.621283
 H    -4.203736    -0.100039    -2.021565
 C    -4.656264    -1.034999     0.478529
 H    -4.516288    -1.408595     1.502252
 H    -5.666260    -0.596605     0.427623
 H    -4.650001    -1.902611    -0.201688
 H    -2.930101    -2.062800    -1.522971
 C    -1.457242    -1.021882    -2.701401
 H    -1.514495    -1.701879    -3.567404
 H    -2.085668    -0.148333    -2.911828
 H    -0.425867    -0.652252    -2.608279
 C    -1.043176    -3.020045    -1.254807
 H    -1.343954    -3.619007    -0.384139
 H    -1.151964    -3.657823    -2.146718
 H     0.027773    -2.787973    -1.157763
 H     1.890033     0.044562    -2.469747
 C     3.801666    -0.905431    -2.200301
 H     4.303033    -1.690980    -1.618580
 H     4.368227     0.027622    -2.067825
 H     1.765395    -1.646234    -2.043033
 H     3.882523    -1.181364    -3.263550
 H     3.326086     1.540077    -0.380502
 C     2.680494     1.794629     1.637245
 H     3.419934     2.586565     1.838459
 H     1.722211     2.269778     1.377300
 H     2.538617     1.231071     2.571336
 C     4.512133     0.262255     0.877696
 H     4.927529    -0.379323     0.091667
 H     5.249229     1.056496     1.080431
 H     4.430328    -0.336510     1.796943
 H     0.940620    -2.295374     0.560018
 C     3.002605    -2.796868     0.617979
 H     2.847791    -3.708326     1.219201
 H     3.033196    -3.107351    -0.436279
 H     3.989347    -2.394419     0.883857
 C     1.715450    -1.501227     2.373929
 H     0.925807    -0.755234     2.550036
 H     1.449768    -2.413984     2.931201
 H     2.647556    -1.112396     2.809603
