 100
scf done:    -2910.767857
 C    -0.954734     1.329630    -3.275016
 H    -1.040739     0.862703    -4.268976
 H    -1.977734     1.596106    -2.972796
 C    -0.091326     2.580204    -3.356585
 H     0.941863     2.355856    -3.669534
 H    -0.494178     3.313760    -4.081542
 H    -0.030876     3.106978    -2.387872
Rh     0.039684     0.148051    -1.845427
 C    -1.463554     1.866464     0.872807
 C    -3.376200     0.768463    -0.971661
 C    -2.036986    -1.000318     0.691546
 C     1.420525    -1.896903     0.858710
 C     3.332588    -0.840369    -0.978334
 C     2.075981     0.944138     0.782799
 P     1.665567    -0.489708    -0.284378
 P    -1.684305     0.489815    -0.312122
 C     0.666335    -0.864701    -3.250372
 O     0.897547    -1.622851    -4.088910
 C    -0.966709     1.686174     2.168088
 H    -0.821204     0.677648     2.557333
 C    -1.621936     3.177279     0.401526
 H    -1.995749     3.348314    -0.612036
 C    -0.645288     2.779469     2.966223
 H    -0.248282     2.608637     3.970786
 C    -1.304735     4.265977     1.207437
 H    -1.439214     5.278696     0.816966
 C    -0.801008     4.089533     2.501725
 C    -0.378691     5.258870     3.340049
 H    -0.871797     6.187825     3.019985
 H    -0.607076     5.096627     4.404105
 H     0.710890     5.408366     3.254977
 C    -4.347286     1.543773    -0.323406
 H    -4.087675     2.106174     0.576553
 C    -3.749357     0.053943    -2.112460
 H    -2.997386    -0.552087    -2.627133
 C    -5.644341     1.611262    -0.810830
 H    -6.406142     2.217475    -0.316900
 C    -5.049934     0.105260    -2.607781
 H    -5.300958    -0.463927    -3.502979
 C    -6.008143     0.892281    -1.957570
 O    -7.288352     1.018037    -2.359056
 C    -7.708942     0.323574    -3.499333
 H    -7.606322    -0.769203    -3.376784
 H    -8.769703     0.565938    -3.642387
 H    -7.148221     0.632479    -4.399231
 C    -1.664814    -2.245997     0.165247
 H    -1.085329    -2.269532    -0.762749
 C    -2.786814    -0.971212     1.868464
 H    -3.128812    -0.017508     2.277884
 C    -2.013594    -3.422344     0.806801
 H    -1.721238    -4.393688     0.405497
 C    -3.120646    -2.146795     2.539963
 H    -3.694748    -2.087118     3.464820
 C    -2.728808    -3.381344     2.009873
 O    -2.991898    -4.573365     2.589553
 C    -3.715991    -4.595459     3.787320
 H    -4.722538    -4.158317     3.665996
 H    -3.819830    -5.649730     4.073943
 H    -3.190480    -4.055941     4.595408
 C     1.613233    -3.197097     0.372950
 H     2.007800    -3.346281    -0.636004
 C     0.898828    -1.744228     2.147782
 H     0.726098    -0.744502     2.548446
 C     1.307753    -4.302642     1.159604
 H     1.469659    -5.306957     0.757976
 C     0.590055    -2.854320     2.927358
 H     0.175346    -2.705244     3.928185
 C     0.782032    -4.154395     2.448599
 C     0.373309    -5.344928     3.263292
 H     0.528656    -5.172046     4.338620
 H    -0.699697    -5.550872     3.112024
 H     0.932242    -6.246672     2.974730
 C     4.314033    -1.548558    -0.265777
 H     4.071707    -1.993569     0.702198
 C     3.686455    -0.279878    -2.205766
 H     2.938230     0.285549    -2.767654
 C     5.591651    -1.706286    -0.777281
 H     6.356583    -2.264867    -0.234444
 C     4.970572    -0.423138    -2.730219
 H     5.203170     0.026734    -3.695511
 C     5.932696    -1.145341    -2.017262
 O     7.195847    -1.352147    -2.436604
 C     7.592530    -0.819606    -3.669201
 H     7.518780     0.282197    -3.683718
 H     8.641938    -1.106518    -3.813194
 H     6.993766    -1.225314    -4.503669
 C     1.745717     2.219519     0.300053
 H     1.202598     2.305856    -0.646239
 C     2.784091     0.854264     1.982091
 H     3.086820    -0.121844     2.368345
 C     2.089728     3.362635     1.000695
 H     1.825812     4.354159     0.630264
 C     3.117285     1.995388     2.711789
 H     3.657879     1.886333     3.652231
 C     2.763607     3.258329     2.223784
 O     3.023994     4.419707     2.863162
 C     3.705394     4.378736     4.085474
 H     4.709142     3.931225     3.980164
 H     3.814130     5.417928     4.420977
 H     3.143636     3.813401     4.850305
