 104
scf done:    -2315.115029
 C     0.260954     3.237468    -0.253376
 H    -0.023954     3.799920    -1.158606
 H    -0.564520     3.393751     0.459368
 C     1.545046     3.816444     0.329565
 H     2.372898     3.795016    -0.396992
 H     1.421568     4.868244     0.652016
 H     1.893193     3.254619     1.213823
Rh     0.577826     1.176615    -0.627259
 C    -1.200624    -0.305732     2.130607
 C    -2.624829     1.889642     0.848124
 C    -2.383509    -0.606443    -0.493090
 C     0.389584    -2.305059    -1.480434
 C     2.953211    -1.189603    -1.728258
 C     1.970424    -1.517831     0.985823
 P     1.428129    -0.990074    -0.697237
 P    -1.379156     0.565455     0.513945
 C     1.471623     1.727608    -2.135270
 O     1.894712     2.029639    -3.166275
 C    -1.457732    -1.682112     2.225809
 H    -1.828204    -2.228420     1.357144
 C    -0.679853     0.369765     3.257404
 C    -0.325597     1.827880     3.224869
 H    -1.203969     2.460625     3.429595
 H     0.074678     2.127820     2.243885
 H     0.428640     2.063704     3.988056
 C    -1.236434    -2.385185     3.407400
 H    -1.447516    -3.456421     3.449982
 C    -0.474167    -0.352720     4.438897
 H    -0.069027     0.171744     5.308956
 C    -0.749495    -1.714227     4.525645
 H    -0.571973    -2.250220     5.460898
 H    -3.460660     1.461789     1.424773
 H    -2.149291     2.644839     1.488764
 C    -3.101201     2.546832    -0.442251
 H    -2.229492     2.732271    -1.092919
 H    -3.753595     1.853466    -0.999888
 C    -3.844954     3.852890    -0.204060
 H    -3.179385     4.551509     0.334748
 H    -4.704421     3.674676     0.468335
 C    -4.331765     4.512062    -1.486764
 H    -3.467225     4.678851    -2.153033
 H    -4.992935     3.810466    -2.026170
 C    -5.060575     5.825261    -1.252816
 H    -5.398587     6.277322    -2.197629
 H    -4.409942     6.557590    -0.748225
 H    -5.948617     5.682221    -0.615942
 H    -2.385459    -0.177348    -1.507350
 H    -1.790613    -1.526661    -0.590492
 C    -3.801337    -0.927317    -0.038398
 H    -3.819274    -1.171332     1.037316
 H    -4.446020    -0.040260    -0.153244
 C    -4.395960    -2.086267    -0.828244
 H    -3.751842    -2.976591    -0.706019
 H    -4.359369    -1.848790    -1.906963
 C    -5.823236    -2.432338    -0.430193
 H    -5.851701    -2.661386     0.650016
 H    -6.462765    -1.541483    -0.561782
 C    -6.400821    -3.598021    -1.216599
 H    -7.431848    -3.827941    -0.907873
 H    -5.799545    -4.510788    -1.075678
 H    -6.417428    -3.381058    -2.296882
 C    -0.221391    -1.834129    -2.655934
 H    -0.044129    -0.794800    -2.951801
 C     0.137918    -3.630038    -1.063725
 C     0.773870    -4.273665     0.136525
 H     0.415805    -3.839469     1.081709
 H     1.867276    -4.166865     0.124930
 H     0.544097    -5.347610     0.158110
 C    -1.077292    -2.626860    -3.409984
 H    -1.535236    -2.227983    -4.317895
 C    -0.756977    -4.401800    -1.821459
 H    -0.968452    -5.423331    -1.493261
 C    -1.363068    -3.918971    -2.976335
 H    -2.052178    -4.554422    -3.537621
 H     3.249014    -2.252637    -1.719519
 H     2.627421    -0.963775    -2.757635
 C     4.116685    -0.287636    -1.340550
 H     3.733059     0.717211    -1.090521
 H     4.594512    -0.669661    -0.422133
 C     5.162813    -0.163694    -2.439300
 H     4.681947     0.252454    -3.342810
 H     5.524611    -1.168936    -2.723760
 C     6.345817     0.711457    -2.049957
 H     5.972285     1.709293    -1.759788
 H     6.822302     0.295870    -1.144024
 C     7.380836     0.853311    -3.154079
 H     8.221774     1.492171    -2.844261
 H     6.938765     1.300857    -4.058678
 H     7.795559    -0.126366    -3.441990
 H     1.087027    -1.909887     1.509639
 H     2.706963    -2.334015     0.918201
 C     2.529592    -0.350412     1.792539
 H     3.402394     0.091113     1.286454
 H     1.772700     0.452420     1.822412
 C     2.910199    -0.757179     3.207864
 H     3.696693    -1.533553     3.170476
 H     2.038440    -1.231691     3.691030
 C     3.388107     0.406063     4.064395
 H     4.271814     0.869904     3.591811
 H     2.610841     1.190075     4.067763
 C     3.716481     0.005772     5.493320
 H     4.057061     0.864877     6.091076
 H     4.512146    -0.756107     5.522779
 H     2.835157    -0.423690     5.997280
