 102
scf done:    -2887.060624
 C     1.140542    -1.593193    -3.262600
 H     0.834597    -1.448324    -4.311959
 H     2.110045    -1.079981    -3.185662
 C     1.351131    -3.075519    -2.986597
 H     0.418172    -3.653405    -3.086981
 H     2.084816    -3.522159    -3.683403
 H     1.733099    -3.251688    -1.968700
Rh    -0.323844    -0.763935    -1.932917
 C     2.782584    -1.087451    -0.483889
 C     2.384569     1.342048    -2.152683
 C     1.541209     1.276581     0.669674
 C    -2.114172     1.289319     0.489000
 C    -3.629877     0.257888    -1.645350
 C    -2.870559    -1.574057     0.416723
 P    -2.133210    -0.186690    -0.593389
 P     1.567069     0.216354    -0.891733
 C    -1.442624    -1.358047    -3.264162
 O    -2.090570    -1.709488    -4.149096
 C     2.469946    -1.914194     0.605997
 H     1.557800    -1.743940     1.180672
 C     3.935045    -1.369631    -1.220959
 H     4.192370    -0.777606    -2.099357
 C     3.303851    -2.959379     0.979741
 H     3.075451    -3.589859     1.840511
 C     4.775225    -2.424668    -0.868711
 H     5.675073    -2.653087    -1.442205
 C     4.454410    -3.199160     0.236689
 F     5.258980    -4.199831     0.588102
 H     2.854210     0.668279    -2.881766
 H     1.532926     1.786171    -2.684979
 C     3.351181     2.389861    -1.687477
 C     4.704945     2.077001    -1.506036
 H     5.050859     1.063779    -1.714976
 C     2.922430     3.711886    -1.435685
 C     1.502315     4.134905    -1.679737
 H     0.788872     3.533728    -1.097657
 H     1.223877     4.023918    -2.740403
 H     1.354229     5.188010    -1.404446
 C     5.620748     3.023276    -1.056363
 H     6.668850     2.746075    -0.922724
 C     3.853651     4.649815    -0.975369
 H     3.516648     5.670459    -0.774973
 C     5.190414     4.317348    -0.777886
 H     5.894289     5.070638    -0.416970
 H     1.870454     2.274013     0.344990
 H     0.489821     1.363223     0.960375
 C     2.395516     0.836233     1.823368
 C     3.787858     0.944122     1.735256
 H     4.227173     1.381813     0.837176
 C     1.821269     0.291385     2.988202
 C     0.335325     0.190065     3.151186
 H    -0.128714    -0.430045     2.367813
 H    -0.148031     1.178088     3.099670
 H     0.073324    -0.263239     4.115179
 C     4.615933     0.490678     2.755558
 H     5.700359     0.578078     2.656181
 C     2.668222    -0.163243     4.005899
 H     2.221348    -0.595405     4.905589
 C     4.052974    -0.078297     3.895832
 H     4.689983    -0.448095     4.702930
 C    -1.543661     2.443399    -0.066178
 H    -1.078055     2.376012    -1.055017
 C    -2.705644     1.379383     1.751660
 H    -3.173057     0.507337     2.203558
 C    -1.561524     3.657001     0.611680
 H    -1.122131     4.561527     0.187576
 C    -2.713101     2.581519     2.455941
 H    -3.165737     2.660124     3.445845
 C    -2.144347     3.706905     1.874457
 F    -2.155915     4.859429     2.537104
 H    -3.296599     1.146851    -2.203155
 H    -3.726651    -0.548993    -2.383571
 C    -4.919970     0.517777    -0.929069
 C    -5.131597     1.757795    -0.310352
 H    -4.366000     2.531494    -0.399670
 C    -5.934434    -0.463287    -0.856647
 C    -5.823049    -1.776723    -1.579184
 H    -4.976675    -2.383715    -1.225610
 H    -5.679144    -1.630640    -2.661820
 H    -6.734885    -2.373872    -1.443562
 C    -6.292636     2.025703     0.408145
 H    -6.426891     3.000864     0.881951
 C    -7.094240    -0.177569    -0.126791
 H    -7.879493    -0.936507    -0.070852
 C    -7.276212     1.046256     0.511941
 H    -8.193262     1.238352     1.073945
 H    -3.862702    -1.240495     0.758503
 H    -3.038587    -2.345151    -0.352727
 C    -2.099495    -2.162179     1.564642
 C    -2.528693    -1.918411     2.875807
 H    -3.427529    -1.317162     3.037147
 C    -0.998726    -3.024688     1.360736
 C    -0.581452    -3.451316    -0.008994
 H    -0.344514    -2.584194    -0.667541
 H    -1.390549    -3.999990    -0.519355
 H     0.301677    -4.101724     0.023021
 C    -1.862032    -2.443971     3.978332
 H    -2.223576    -2.232742     4.987248
 C    -0.327426    -3.530077     2.481604
 H     0.527608    -4.192322     2.320654
 C    -0.737511    -3.239555     3.779689
 H    -0.192954    -3.654065     4.631273
