  78
scf done:    -3690.108080
 C    -1.205511     0.384546    -3.607604
 H    -0.909976    -0.103002    -4.545157
 H    -2.284990     0.254064    -3.469634
 C    -0.765987     1.833530    -3.528113
 H    -0.246754     2.186668    -4.432012
 H    -1.593821     2.525347    -3.307727
 H    -0.018508     1.994535    -2.696668
Rh    -0.003990    -0.103225    -1.980835
 C    -1.776707     1.553902     0.630158
 C    -3.506891     0.019219    -1.079611
 C    -1.859320    -1.359260     0.668035
 C     1.786488    -1.389850     0.814327
 C     3.402762    -0.125920    -1.175294
 C     1.909451     1.499804     0.572073
 P     1.728810    -0.037732    -0.416589
 P    -1.769952     0.083248    -0.466560
 C     0.755731    -1.499334    -2.915329
 O     1.135765    -2.478067    -3.395931
 C    -1.307589     1.530903     1.948004
 H    -1.055016     0.579376     2.417562
 C    -2.086282     2.798490     0.058895
 H    -2.430493     2.850506    -0.977606
 C    -1.145091     2.705802     2.677562
 H    -0.759754     2.680704     3.697987
 C    -1.948340     3.977675     0.780977
 H    -2.192284     4.941621     0.331218
 C    -1.464048     3.925734     2.088614
Cl    -1.212270     5.394419     2.966331
 C    -3.800219    -0.984825    -2.014143
 H    -2.993801    -1.627256    -2.379505
 C    -4.547997     0.825756    -0.609340
 H    -4.352936     1.599842     0.135369
 C    -5.096963    -1.177449    -2.475669
 H    -5.336744    -1.956099    -3.201828
 C    -5.851416     0.649868    -1.070914
 H    -6.672793     1.273616    -0.713562
 C    -6.108224    -0.349422    -2.000000
 F    -7.350712    -0.521468    -2.443330
 C    -2.675664    -1.363953     1.807263
 H    -3.239421    -0.469567     2.083901
 C    -1.200079    -2.537077     0.302053
 H    -0.578629    -2.529731    -0.597157
 C    -2.791828    -2.505683     2.593085
 H    -3.416103    -2.525157     3.488237
 C    -1.328680    -3.694219     1.064171
 H    -0.816283    -4.618546     0.794084
 C    -2.112617    -3.658382     2.209394
 F    -2.226725    -4.752610     2.955354
 C     2.221710    -2.656562     0.400268
 H     2.624001    -2.793865    -0.606944
 C     1.257342    -1.251535     2.102092
 H     0.905274    -0.277319     2.443608
 C     2.137398    -3.753547     1.250290
 H     2.472838    -4.739512     0.924630
 C     1.162838    -2.341886     2.961037
 H     0.736778    -2.232468     3.959326
 C     1.598521    -3.591278     2.526699
Cl     1.431518    -4.963055     3.565650
 C     3.557079     0.278626    -2.505203
 H     2.670323     0.557563    -3.081706
 C     4.537862    -0.502083    -0.445042
 H     4.439800    -0.828815     0.592834
 C     4.814624     0.311607    -3.101803
 H     4.948935     0.621220    -4.139616
 C     5.799131    -0.483458    -1.030216
 H     6.692110    -0.782849    -0.478673
 C     5.920111    -0.072623    -2.353996
 F     7.124613    -0.053145    -2.916449
 C     2.692284     1.577593     1.732028
 H     3.181905     0.685132     2.127450
 C     1.319266     2.668871     0.081507
 H     0.701717     2.619301    -0.818106
 C     2.857376     2.785805     2.401232
 H     3.456848     2.859671     3.310340
 C     1.492452     3.888757     0.726976
 H     1.028655     4.804574     0.358495
 C     2.253995     3.929121     1.887310
 F     2.412897     5.085064     2.522068
