  78
scf done:    -5131.220302
 C    -1.089647     0.564022    -3.632293
 H    -0.900091     0.010989    -4.560673
 H    -2.173022     0.646384    -3.487046
 C    -0.376203     1.900282    -3.578298
 H     0.240515     2.106161    -4.465809
 H    -1.056885     2.751233    -3.419026
 H     0.351882     1.946739    -2.714328
Rh     0.002967    -0.102745    -1.992231
 C    -1.556620     1.819508     0.575919
 C    -3.451126     0.493046    -1.133916
 C    -2.023791    -1.057656     0.651029
 C     1.569531    -1.642343     0.819438
 C     3.361304    -0.587546    -1.141247
 C     2.075662     1.207945     0.596178
 P     1.701252    -0.288056    -0.403722
 P    -1.726083     0.344136    -0.500649
 C     0.545749    -1.608595    -2.912160
 O     0.773822    -2.637476    -3.383338
 C    -1.105324     1.761961     1.899112
 H    -0.965573     0.795151     2.384639
 C    -1.708660     3.082370    -0.018233
 H    -2.032900     3.157970    -1.059849
 C    -0.821041     2.921419     2.616111
 H    -0.454035     2.868031     3.642129
 C    -1.445428     4.248510     0.690038
 H    -1.571708     5.227316     0.224282
 C    -0.994860     4.161545     2.008092
Cl    -0.613651     5.606259     2.877000
 C    -3.853163    -0.462048    -2.077864
 H    -3.125029    -1.192054    -2.443644
 C    -4.392297     1.415451    -0.667673
 H    -4.113333     2.157765     0.082860
 C    -5.159285    -0.495723    -2.551174
 H    -5.470277    -1.240871    -3.284948
 C    -5.702636     1.398969    -1.141479
 H    -6.436669     2.120365    -0.778806
 C    -6.078759     0.443272    -2.082425
Cl    -7.704729     0.417951    -2.674193
 C    -2.826731    -0.931616     1.791870
 H    -3.257379     0.036612     2.058714
 C    -1.541971    -2.321649     0.299069
 H    -0.929759    -2.416009    -0.601638
 C    -3.098304    -2.034145     2.594536
 H    -3.713342    -1.938287     3.490750
 C    -1.827424    -3.438015     1.079049
 H    -1.446586    -4.423230     0.807620
 C    -2.590895    -3.283546     2.233652
Cl    -2.917840    -4.655225     3.234825
 C     1.854536    -2.949589     0.400989
 H     2.245776    -3.129047    -0.603951
 C     1.045557    -1.448890     2.102496
 H     0.800383    -0.442785     2.445690
 C     1.639858    -4.032501     1.245984
 H     1.863468    -5.049109     0.918649
 C     0.822923    -2.524276     2.956904
 H     0.403848    -2.370965     3.952307
 C     1.121710    -3.813781     2.522782
Cl     0.820670    -5.159491     3.564123
 C     3.580453    -0.217059    -2.471000
 H     2.742772     0.164647    -3.062049
 C     4.431879    -1.095684    -0.394733
 H     4.283195    -1.399232     0.644216
 C     4.839446    -0.345816    -3.051423
 H     5.009711    -0.059541    -4.090337
 C     5.692191    -1.238468    -0.963799
 H     6.525754    -1.642396    -0.387128
 C     5.889139    -0.858717    -2.292449
Cl     7.455566    -1.033876    -3.004630
 C     2.831496     1.171871     1.775130
 H     3.182406     0.219121     2.177195
 C     1.666873     2.449457     0.100552
 H     1.070673     2.492318    -0.813831
 C     3.145904     2.342395     2.456954
 H     3.726514     2.313846     3.380356
 C     1.990069     3.630424     0.760526
 H     1.662076     4.596339     0.375119
 C     2.721777     3.568886     1.944337
Cl     3.106730     5.025127     2.791563
