  46
scf done:    -1604.172305
 C     2.136802    -2.014823    -0.017972
 H     2.365992    -2.563195    -0.947124
 H     2.981500    -1.324429     0.136702
 C     2.050714    -2.987709     1.151033
 H     1.302923    -3.778424     0.977796
 H     3.016551    -3.492069     1.344589
 H     1.764837    -2.486574     2.091392
Rh     0.287444    -0.963435    -0.149444
 C     1.839446     1.721524     1.607193
 O     2.913910     1.090059    -0.693796
 O     0.607698     2.212107    -0.786304
 C    -2.375522     0.979131    -1.442292
 O    -3.014667    -0.723426     0.453484
 O    -1.590977     1.277049     1.220042
 P    -1.674244     0.138324     0.022206
 P     1.419960     0.999580    -0.011583
 C    -0.401178    -2.515883    -0.930601
 O    -0.788345    -3.404921    -1.547001
 H     0.864155     2.002307     2.037911
 C     2.577863     0.737435     2.502670
 H     3.553858     0.467364     2.073732
 H     2.001138    -0.191377     2.629746
 H     2.427685     2.639672     1.450212
 H     2.751444     1.168851     3.499624
 C     3.112859     0.526280    -1.976350
 H     2.454784    -0.345715    -2.129913
 H     2.909050     1.272910    -2.761671
 H     4.161919     0.207564    -2.046610
 C     1.128037     3.520085    -0.867917
 H     0.910456     4.095433     0.047675
 H     2.217238     3.512301    -1.037252
 H     0.641892     4.019607    -1.718056
 H    -2.094239     0.305950    -2.269487
 C    -3.864780     1.285996    -1.489162
 H    -4.161060     2.049793    -0.757183
 H    -4.456602     0.382961    -1.285734
 H    -1.741552     1.871949    -1.567018
 H    -4.142733     1.661477    -2.485986
 C    -2.911174    -1.673172     1.492235
 H    -1.979356    -2.259006     1.405985
 H    -2.928771    -1.184378     2.480895
 H    -3.772680    -2.350423     1.413182
 C    -2.677263     2.093800     1.588472
 H    -2.780988     2.953418     0.904636
 H    -3.624169     1.529865     1.602310
 H    -2.479743     2.477232     2.600020
