  96
scf done:    -2610.112575
 C     1.384428    -0.967852    -3.212654
 H     1.273751    -0.562104    -4.230346
 H     2.434666    -0.805491    -2.931259
 C     1.061069    -2.454917    -3.203341
 H     0.015724    -2.657652    -3.489941
 H     1.701346    -3.021420    -3.906792
 H     1.219870    -2.907258    -2.208504
Rh     0.021576    -0.179027    -1.816956
 C     2.001844    -1.182541     0.939404
 C     3.424301     0.498387    -0.925613
 C     1.546841     1.712342     0.681126
 C    -1.991886     1.323822     0.830346
 C    -3.411269    -0.410680    -0.952213
 C    -1.626044    -1.584545     0.834529
 P    -1.724429    -0.113864    -0.265929
 P     1.733421     0.156017    -0.277047
 C    -0.915520     0.510280    -3.246908
 O    -1.397285     1.116761    -4.101468
 C     1.437869    -1.171547     2.220183
 H     0.931788    -0.276340     2.582469
 C     2.630684    -2.356235     0.503228
 H     3.066481    -2.399942    -0.498779
 C     1.504029    -2.294270     3.037132
 H     1.039896    -2.262691     4.026555
 C     2.705922    -3.472039     1.331725
 H     3.205474    -4.375090     0.970075
 C     2.138296    -3.465981     2.610157
 C     2.174044    -4.679299     3.490584
 H     2.747980    -5.496703     3.032099
 H     2.626109    -4.454075     4.469252
 H     1.153693    -5.048476     3.685936
 C     3.517928     1.285295    -2.077945
 H     2.603539     1.575205    -2.603804
 C     4.590305     0.123169    -0.253157
 H     4.522130    -0.478113     0.657242
 C     4.767332     1.684022    -2.543400
 H     4.839842     2.300723    -3.442519
 C     5.853151     0.506579    -0.718000
 C     7.100223     0.066157    -0.006789
 H     7.564539    -0.792927    -0.519301
 H     7.851408     0.869494     0.024605
 H     6.886530    -0.243554     1.026123
 C     5.924366     1.295208    -1.871853
 H     6.901947     1.610098    -2.248144
 C     2.222563     1.953847     1.881217
 H     2.822109     1.168661     2.346982
 C     0.827443     2.746554     0.074341
 H     0.306813     2.534463    -0.865686
 C     2.142136     3.211485     2.474277
 H     2.658097     3.399936     3.419175
 C     0.772910     4.024091     0.638204
 C     0.066043     5.146364    -0.063146
 H     0.790464     5.803982    -0.571928
 H    -0.631065     4.766608    -0.821961
 H    -0.502528     5.770306     0.642391
 C     1.427866     4.236026     1.857204
 H     1.388918     5.225195     2.323194
 C    -2.631429     2.453848     0.305916
 H    -3.057815     2.419447    -0.700448
 C    -1.440993     1.411418     2.113829
 H    -0.927525     0.551430     2.544441
 C    -2.732604     3.623384     1.053082
 H    -3.241778     4.490757     0.623945
 C    -1.532454     2.587295     2.849199
 H    -1.079832     2.632105     3.843393
 C    -2.178532     3.716305     2.333920
 C    -2.232494     4.991773     3.120172
 H    -2.594620     4.820152     4.145541
 H    -1.226781     5.436617     3.205337
 H    -2.889549     5.734089     2.645747
 C    -3.529429    -1.109065    -2.155260
 H    -2.627534    -1.392427    -2.703791
 C    -4.569962    -0.062061    -0.247091
 H    -4.485320     0.475161     0.701198
 C    -4.791659    -1.440185    -2.645921
 H    -4.880136    -1.984899    -3.588987
 C    -5.841063    -0.378796    -0.731362
 C    -7.077504     0.020867     0.021026
 H    -6.829689     0.458783     0.998053
 H    -7.661275     0.766979    -0.542206
 H    -7.738195    -0.843160     0.192920
 C    -5.935467    -1.074752    -1.944242
 H    -6.921806    -1.332968    -2.340499
 C    -2.295499    -1.696590     2.056908
 H    -2.871946    -0.857504     2.452047
 C    -0.928580    -2.688154     0.332204
 H    -0.413368    -2.591861    -0.629604
 C    -2.230474    -2.891600     2.770197
 H    -2.742327    -2.976909     3.732143
 C    -0.882344    -3.903081     1.020227
 C    -0.185717    -5.094630     0.432254
 H    -0.915093    -5.791364    -0.013254
 H     0.516558    -4.796311    -0.357818
 H     0.375306    -5.652569     1.196390
 C    -1.532789    -3.982861     2.257301
 H    -1.501568    -4.919586     2.821711
