  88
scf done:    -4591.648405
 C     1.337442    -3.696479    -0.298679
 H     1.620656    -4.376357     0.520447
 H     0.374395    -4.081933    -0.675675
 C     2.384066    -3.725386    -1.403658
 H     3.368875    -3.385275    -1.044166
 H     2.521857    -4.743230    -1.813939
 H     2.105437    -3.077974    -2.251591
Rh     1.257677    -1.668125     0.359880
 C    -0.553887    -1.980518    -2.606534
 O    -1.869600    -2.636826    -0.426970
 O    -1.391837    -0.132359    -0.759065
 C     0.049579     1.363401     1.773298
 O     2.627052     1.266859     1.362146
 O     1.188965     1.316740    -0.765058
 P     1.267345     0.545193     0.716692
 P    -0.635226    -1.608464    -0.843201
 C     2.450079    -2.154458     1.737117
 O     3.075338    -2.478607     2.639851
 C     0.175231    -1.083973    -3.399401
 H     0.611317    -0.188707    -2.944961
 C    -1.096288    -3.132298    -3.180629
 H    -1.665981    -3.828520    -2.562099
 C     0.337480    -1.334265    -4.755951
 H     0.897028    -0.624081    -5.370763
 C    -0.916566    -3.375573    -4.540240
 H    -1.343935    -4.278419    -4.984722
 C    -0.200489    -2.485838    -5.349120
 C     0.013682    -2.763823    -6.807168
 H    -0.104279    -1.852041    -7.411350
 H     1.034265    -3.141099    -6.985472
 H    -0.689192    -3.520267    -7.182870
 C    -2.332751    -2.617252     0.870510
 C    -3.586547    -2.062363     1.119309
 H    -4.179457    -1.683153     0.285893
 C    -1.556423    -3.122144     1.913452
 H    -0.577371    -3.550393     1.694402
 C    -4.055729    -1.973240     2.425994
 H    -5.027937    -1.525836     2.637642
 C    -2.021388    -3.027301     3.222743
 H    -1.417058    -3.395147     4.053177
 C    -3.260472    -2.438640     3.471948
Cl    -3.809664    -2.251670     5.106300
 C    -2.667751     0.227013    -1.083841
 C    -3.233922     1.243590    -0.309440
 H    -2.652221     1.667853     0.510853
 C    -3.393527    -0.350091    -2.126675
 H    -2.952733    -1.138865    -2.735331
 C    -4.526367     1.681466    -0.572244
 H    -4.977309     2.471362     0.030471
 C    -4.691583     0.085474    -2.384567
 H    -5.270276    -0.360209    -3.195123
 C    -5.254708     1.096819    -1.608797
Cl    -6.869884     1.632917    -1.933567
 C     0.011365     2.743670     2.022242
 H     0.757449     3.407168     1.582731
 C    -0.892203     0.533282     2.389165
 H    -0.851992    -0.544867     2.213811
 C    -0.981485     3.271826     2.837997
 H    -1.009188     4.350667     3.014731
 C    -1.871493     1.070369     3.220940
 H    -2.590252     0.403182     3.702784
 C    -1.940438     2.448150     3.448782
 C    -2.996053     3.036512     4.336778
 H    -3.701256     2.270223     4.686525
 H    -2.545239     3.511197     5.222980
 H    -3.568776     3.816766     3.811388
 C     3.883348     0.815382     1.073606
 C     4.848407     0.927346     2.075142
 H     4.560429     1.356929     3.036026
 C     4.218014     0.260291    -0.165027
 H     3.466080     0.180186    -0.952284
 C     6.145815     0.484694     1.845598
 H     6.906169     0.563963     2.623985
 C     5.515424    -0.192974    -0.391774
 H     5.784600    -0.635215    -1.352088
 C     6.473937    -0.079247     0.612143
Cl     8.087989    -0.642005     0.328006
 C     1.053127     2.663829    -0.959273
 C     2.154379     3.512611    -0.840614
 H     3.129842     3.098707    -0.580586
 C    -0.197802     3.171886    -1.308394
 H    -1.041029     2.486913    -1.400048
 C     1.996310     4.880160    -1.048303
 H     2.846169     5.558087    -0.955179
 C    -0.357000     4.537147    -1.520834
 H    -1.331487     4.947656    -1.789751
 C     0.740275     5.386887    -1.381790
Cl     0.543163     7.089778    -1.634087
