  88
scf done:    -4591.641718
 C     0.628446    -1.978170     3.167698
 H    -0.219932    -2.688689     3.170320
 H     1.458858    -2.509807     2.671531
 C     1.047987    -1.655142     4.591285
 H     0.222420    -1.236930     5.187771
 H     1.408658    -2.555183     5.121422
 H     1.871714    -0.924449     4.619443
Rh    -0.190925    -0.450426     1.923723
 C     3.267268    -0.492611     1.667191
 O     1.975496    -2.259787     0.099267
 O     1.869401     0.241225    -0.538453
 C    -0.415270     2.020488    -0.710614
 O    -2.102183     0.029092    -0.751513
 O    -2.424029     1.784299     1.125216
 P    -1.246684     0.857210     0.412804
 P     1.709207    -0.766459     0.774350
 C    -1.160395     0.217389     3.396727
 O    -1.646503     0.738792     4.292601
 C     3.126343     0.447832     2.698309
 H     2.120724     0.819024     2.924434
 C     4.539863    -1.023505     1.357665
 C     4.793977    -2.040865     0.284912
 H     4.409972    -1.710642    -0.689927
 H     4.293737    -2.992459     0.512314
 H     5.871989    -2.224475     0.184735
 C     4.224959     0.896223     3.422883
 H     4.094172     1.630401     4.220576
 C     5.626499    -0.562203     2.111855
 H     6.619238    -0.960680     1.887462
 C     5.483887     0.384096     3.122810
 H     6.362532     0.716936     3.680715
 C     0.967609    -2.919171    -0.557329
 C     0.295903    -2.339572    -1.635423
 H     0.532068    -1.318725    -1.937114
 C     0.647108    -4.211739    -0.143455
 H     1.170779    -4.637912     0.713836
 C    -0.677930    -3.065018    -2.316289
 H    -1.210488    -2.622794    -3.158985
 C    -0.325397    -4.937617    -0.823124
 H    -0.584343    -5.950400    -0.510757
 C    -0.980049    -4.362943    -1.913107
Cl    -2.177659    -5.271385    -2.770397
 C     3.010286     0.583814    -1.205780
 C     3.291699    -0.012648    -2.434888
 H     2.619404    -0.776953    -2.827667
 C     3.857013     1.564082    -0.688363
 H     3.618422     2.026496     0.269890
 C     4.424329     0.367392    -3.148843
 H     4.655300    -0.090596    -4.111740
 C     4.993243     1.941220    -1.395519
 H     5.666164     2.703213    -0.999690
 C     5.272736     1.340534    -2.622790
Cl     6.687479     1.811832    -3.505083
 C    -0.391544     1.791279    -2.090316
 H    -0.970370     0.962879    -2.500889
 C     0.338929     3.072080    -0.150447
 C     0.348698     3.346818     1.324138
 H     1.169837     4.025630     1.591951
 H     0.460809     2.415255     1.904183
 H    -0.594408     3.815271     1.646989
 C     0.368976     2.597954    -2.929925
 H     0.383840     2.407029    -4.005202
 C     1.092752     3.871282    -1.016031
 H     1.684694     4.688354    -0.595125
 C     1.115143     3.641496    -2.388466
 H     1.725888     4.275078    -3.035645
 C    -2.770880    -1.155163    -0.590684
 C    -2.496859    -2.073328     0.421637
 H    -1.717182    -1.857749     1.168520
 C    -3.743828    -1.447033    -1.547956
 H    -3.946247    -0.719742    -2.336409
 C    -3.190604    -3.277181     0.475915
 H    -2.970381    -4.000741     1.262089
 C    -4.435383    -2.652701    -1.499702
 H    -5.189799    -2.890860    -2.250644
 C    -4.158001    -3.565286    -0.483323
Cl    -5.008523    -5.071950    -0.421197
 C    -3.110463     2.832218     0.578451
 C    -3.417764     3.891860     1.433792
 H    -3.101904     3.832729     2.477168
 C    -3.521978     2.864701    -0.754865
 H    -3.300611     2.025780    -1.413480
 C    -4.122983     4.991711     0.958494
 H    -4.368745     5.823911     1.619870
 C    -4.221778     3.968882    -1.233403
 H    -4.544891     4.008046    -2.274737
 C    -4.516663     5.028957    -0.378852
Cl    -5.387232     6.401515    -0.980064
