  84
scf done:    -1853.367464
 C    -0.038235    -2.996934    -2.104542
 H     0.230331    -4.001101    -1.738540
 H    -1.115137    -3.071583    -2.339392
 C     0.754935    -2.691344    -3.369520
 H     1.839480    -2.701055    -3.175697
 H     0.564609    -3.424103    -4.177645
 H     0.522491    -1.694838    -3.782278
Rh     0.400854    -1.477896    -0.676556
 C    -2.112330    -0.540089    -3.088877
 C    -2.980256    -1.648413    -0.581984
 C    -2.183739     1.125532    -0.784520
 C     0.179225     0.461294     2.302802
 C     2.814381    -0.086099     1.416831
 C     1.261254     1.902705     0.028426
 P     1.119548     0.201271     0.742780
 P    -1.669432    -0.575922    -1.307307
 C     1.577976    -2.701348     0.025269
 O     2.233899    -3.512155     0.517892
 H    -1.493115     0.213407    -3.596948
 H    -1.897948    -1.518490    -3.538125
 H    -3.174379    -0.299313    -3.241968
 H    -3.973511    -1.313568    -0.926544
 H    -2.810038    -2.651133    -1.006041
 C    -2.906565    -1.707236     0.937232
 H    -1.874561    -1.981775     1.220536
 H    -3.083587    -0.702032     1.361941
 C    -3.893152    -2.687421     1.553995
 H    -3.709102    -3.694613     1.138524
 H    -4.922142    -2.420617     1.249508
 C    -3.814383    -2.745720     3.073226
 H    -2.783159    -3.007863     3.368765
 H    -3.994193    -1.735747     3.483526
 C    -4.791656    -3.731182     3.693102
 H    -4.710042    -3.750233     4.790480
 H    -4.610199    -4.755028     3.328560
 H    -5.833206    -3.473565     3.441340
 H    -1.858437     1.247364     0.260863
 H    -1.555420     1.815015    -1.374446
 C    -3.650326     1.508745    -0.917974
 H    -3.994129     1.349088    -1.954359
 H    -4.268304     0.845642    -0.288811
 C    -3.917641     2.955546    -0.523087
 H    -3.306128     3.625644    -1.154730
 H    -3.566950     3.121105     0.512207
 C    -5.382091     3.357294    -0.630019
 H    -5.728744     3.186287    -1.664659
 H    -5.988140     2.683900     0.001747
 C    -5.642375     4.801885    -0.235131
 H    -6.708133     5.061617    -0.322426
 H    -5.076935     5.498968    -0.874366
 H    -5.338130     4.992281     0.806732
 H     0.145156    -0.498282     2.838875
 H     0.635322     1.221146     2.955127
 H    -0.856522     0.751064     2.076738
 H     3.057935     0.680863     2.171634
 H     2.760267    -1.049622     1.951066
 C     3.883880    -0.150557     0.335327
 H     3.521438    -0.785861    -0.492372
 H     4.034039     0.853635    -0.100161
 C     5.215974    -0.687396     0.838765
 H     5.060768    -1.704600     1.241377
 H     5.565394    -0.074877     1.690425
 C     6.296365    -0.728846    -0.232654
 H     5.935869    -1.335717    -1.081797
 H     6.446489     0.288696    -0.635878
 C     7.621076    -1.282431     0.266634
 H     8.380728    -1.301134    -0.529536
 H     7.506313    -2.312345     0.641043
 H     8.021772    -0.675406     1.094686
 H     1.805724     1.775680    -0.922716
 H     0.240435     2.201027    -0.256277
 C     1.908813     2.987662     0.876125
 H     1.387328     3.073911     1.845336
 H     2.948709     2.707969     1.116565
 C     1.908319     4.348635     0.191525
 H     0.867811     4.637226    -0.045801
 H     2.423525     4.266013    -0.782814
 C     2.561610     5.448170     1.017156
 H     2.046580     5.522918     1.991465
 H     3.600188     5.154567     1.251752
 C     2.555955     6.804009     0.329866
 H     3.034502     7.576796     0.950217
 H     1.528231     7.139008     0.115520
 H     3.095420     6.767222    -0.630262
