 102
scf done:    -3607.628565
 C    -0.801827     1.052624    -4.220726
 H    -0.269177     0.978206    -5.181668
 H    -1.675856     0.393194    -4.334674
 C    -1.234312     2.498243    -4.012651
 H    -1.902276     2.857518    -4.818554
 H    -1.776448     2.650678    -3.063500
 H    -0.368246     3.179618    -3.989026
Rh     0.401215     0.487391    -2.572316
 C    -1.823760     0.695939     0.241214
 C    -3.175887     0.064557    -2.173139
 C    -1.443038    -2.037480    -1.125775
 C     2.313692    -1.336392    -0.145195
 C     3.572216     0.986797    -1.216828
 C     1.489133     1.253155     0.750557
 P     1.875495     0.320406    -0.786733
 P    -1.516166    -0.176709    -1.350763
 C     1.728958     0.329102    -3.828145
 O     2.525039     0.116613    -4.634073
 C    -1.785500     0.155651     1.531588
 H    -1.576555    -0.899794     1.690264
 C    -2.073307     2.072286     0.108259
 H    -2.067245     2.535088    -0.881531
 C    -2.005697     0.960423     2.649808
 H    -1.969279     0.530832     3.652176
 C    -2.312258     2.881724     1.210704
 H    -2.491163     3.950405     1.088652
 C    -2.272386     2.316000     2.483696
Cl    -2.533139     3.316323     3.875748
 H    -3.293463     1.152217    -2.289783
 H    -3.053167    -0.338679    -3.188060
 C    -4.366957    -0.552100    -1.508753
 C    -4.947891    -1.709276    -2.045005
 H    -4.544493    -2.138567    -2.966211
 C    -4.916250    -0.011525    -0.339825
 H    -4.481887     0.895775     0.085070
 C    -6.033086    -2.312665    -1.414133
 H    -6.476096    -3.215903    -1.840306
 C    -5.996914    -0.611332     0.313507
 C    -6.546054    -0.005290     1.572408
 H    -5.735480     0.314912     2.244602
 H    -7.152864     0.887748     1.349464
 H    -7.187070    -0.713464     2.116337
 C    -6.549532    -1.773269    -0.237942
 H    -7.393886    -2.257775     0.259749
 H    -2.148561    -2.414543    -1.883112
 H    -0.435517    -2.300394    -1.473401
 C    -1.705054    -2.686469     0.203256
 C    -0.626396    -3.144891     0.969755
 H     0.387226    -3.057135     0.579617
 C    -2.998591    -2.834613     0.711714
 H    -3.848758    -2.495455     0.120144
 C    -0.841644    -3.698052     2.228451
 H     0.010541    -4.050891     2.814701
 C    -3.232142    -3.382634     1.977585
 C    -4.633044    -3.480932     2.507968
 H    -5.316307    -3.897087     1.752836
 H    -4.682995    -4.110731     3.407374
 H    -5.022273    -2.483777     2.771173
 C    -2.135211    -3.806746     2.735905
 H    -2.298874    -4.237503     3.727568
 C     2.643298    -1.602860     1.188703
 H     2.607651    -0.812739     1.939386
 C     2.386330    -2.380380    -1.077507
 H     2.110572    -2.183415    -2.118284
 C     3.035582    -2.877717     1.586717
 H     3.290478    -3.084486     2.627367
 C     2.793566    -3.656051    -0.697819
 H     2.852617    -4.467389    -1.424825
 C     3.115702    -3.896188     0.638423
Cl     3.623234    -5.476049     1.128746
 H     3.899664     0.411987    -2.095769
 H     3.399645     2.022034    -1.549681
 C     4.563806     0.911707    -0.101770
 C     4.722842     1.975340     0.797878
 H     4.163896     2.902528     0.643012
 C     5.294638    -0.261226     0.112998
 H     5.176095    -1.094493    -0.586054
 C     5.582229     1.848321     1.885319
 H     5.704376     2.682534     2.580645
 C     6.153224    -0.410284     1.207091
 C     6.885673    -1.703716     1.416855
 H     6.179390    -2.544496     1.514028
 H     7.541732    -1.934228     0.562593
 H     7.507653    -1.675401     2.322377
 C     6.286735     0.662615     2.093846
 H     6.953451     0.569418     2.955474
 H     0.655205     0.716760     1.231055
 H     2.349114     1.188141     1.435516
 C     1.109589     2.700828     0.569118
 C     0.792621     3.264112    -0.671672
 H     0.834119     2.646242    -1.581958
 C     1.024729     3.507429     1.708783
 H     1.270871     3.073699     2.683303
 C     0.383289     4.592875    -0.755227
 H     0.134592     5.018362    -1.730704
 C     0.604974     4.839124     1.646786
 C     0.473370     5.653250     2.901018
 H     0.330923     6.719911     2.677984
 H    -0.391812     5.311831     3.492113
 H     1.363752     5.553222     3.540289
 C     0.283935     5.374008     0.393130
 H    -0.040683     6.415679     0.319515
