  82
scf done:    -3270.342957
 C     1.522473    -3.261169     0.418133
 H     1.689705    -4.085739    -0.284052
 H     2.494537    -2.894681     0.770993
 C     0.538619    -3.569482     1.524383
 H     0.177096    -4.608293     1.519606
 H     0.919327    -3.320162     2.525762
 H    -0.414036    -2.955017     1.427062
Rh     0.166120    -1.824500    -0.263469
 C     1.682505     0.227756     2.260956
 O     3.155158    -0.399203     0.227696
 O     1.217974     1.229439    -0.225641
 C    -2.003164     0.350636    -2.090857
 O    -3.099581    -1.259057    -0.324120
 O    -1.749494     0.739950     0.576216
 P    -1.627940    -0.500636    -0.542460
 P     1.522150    -0.245032     0.516127
 C     0.038903    -2.658922    -1.946544
 O     0.080159    -3.026954    -3.034399
 C     0.532925     0.107410     3.050397
 H    -0.383730    -0.287681     2.603996
 C     2.860160     0.734706     2.825117
 H     3.756767     0.823587     2.209681
 C     0.546403     0.501818     4.384537
 H    -0.337596     0.420685     5.019265
 C     2.886676     1.125660     4.158694
 H     3.790360     1.525434     4.622093
 C     1.726832     1.006762     4.918426
 F     1.749534     1.382721     6.192657
 C     3.674955    -0.948123    -0.911797
 C     4.835143    -1.711558    -0.780304
 H     5.263362    -1.851509     0.213748
 C     3.100944    -0.755096    -2.169910
 H     2.193267    -0.160648    -2.269548
 C     5.424196    -2.284914    -1.902441
 H     6.331253    -2.886673    -1.824001
 C     3.681977    -1.337411    -3.294045
 H     3.242896    -1.212248    -4.285070
 C     4.835998    -2.095288    -3.148022
 F     5.394736    -2.650032    -4.223469
 C     1.864263     2.383075     0.141838
 C     3.068836     2.731401    -0.468688
 H     3.498896     2.070359    -1.223236
 C     1.297359     3.208576     1.114121
 H     0.362448     2.906570     1.588682
 C     3.709011     3.914765    -0.109121
 H     4.651463     4.214877    -0.570484
 C     1.933710     4.392316     1.475025
 H     1.514089     5.055901     2.232992
 C     3.133436     4.729643     0.858931
 F     3.746433     5.860773     1.204519
 C    -0.929623     0.930316    -2.777390
 H     0.081316     0.823658    -2.377248
 C    -3.305284     0.495517    -2.583561
 H    -4.139309     0.038591    -2.048687
 C    -1.149723     1.659568    -3.940501
 H    -0.330886     2.124331    -4.492076
 C    -3.534200     1.218459    -3.748819
 H    -4.538483     1.347419    -4.155978
 C    -2.452528     1.792972    -4.408483
 F    -2.670503     2.487138    -5.519677
 C    -3.159572    -2.288634     0.581867
 C    -3.271270    -3.596681     0.111534
 H    -3.305626    -3.769991    -0.965133
 C    -3.090476    -2.034820     1.952959
 H    -2.988609    -1.006906     2.305052
 C    -3.325650    -4.655677     1.012513
 H    -3.411032    -5.688947     0.671850
 C    -3.139879    -3.092659     2.858311
 H    -3.085768    -2.923913     3.935115
 C    -3.255959    -4.390339     2.375823
 F    -3.299744    -5.403560     3.238486
 C    -2.619003     1.790940     0.410212
 C    -3.949905     1.679609     0.811692
 H    -4.307671     0.743218     1.241497
 C    -2.149908     2.973600    -0.162881
 H    -1.108969     3.031028    -0.483478
 C    -4.815584     2.758302     0.645518
 H    -5.861796     2.700497     0.950844
 C    -3.011303     4.052917    -0.330570
 H    -2.670754     4.988152    -0.778160
 C    -4.335463     3.931097     0.075546
 F    -5.163318     4.961844    -0.086247
