 100
scf done:    -2910.761476
 C    -1.072940    -3.322673     0.258048
 H    -1.598446    -3.656623     1.167876
 H    -1.852380    -3.173834    -0.504325
 C    -0.095622    -4.394905    -0.202642
 H     0.624150    -4.668251     0.585870
 H    -0.616734    -5.323510    -0.504514
 H     0.496586    -4.071809    -1.076626
Rh    -0.002207    -1.527191     0.514827
 C    -1.441331     0.525533    -2.087879
 C    -3.368367    -1.070669    -0.711363
 C    -2.253770     1.028219     0.699666
 C     1.764799     1.260624     1.925545
 C     3.352738    -0.848058     0.774354
 C     2.229137     0.984369    -0.956241
 P     1.757354     0.044855     0.543779
 P    -1.721637    -0.286426    -0.461665
 C     0.608061    -2.290075     2.078858
 O     0.828057    -2.660845     3.148486
 C    -1.420113     1.915597    -2.243273
 H    -1.619822     2.556507    -1.384086
 C    -1.153939    -0.300672    -3.201373
 C    -1.072864    -1.792977    -3.078309
 H    -2.051465    -2.245043    -2.853720
 H    -0.408926    -2.084383    -2.245038
 H    -0.691331    -2.246129    -4.003254
 C    -1.143523     2.500206    -3.476982
 H    -1.122142     3.588419    -3.569499
 C    -0.908258     0.307239    -4.436158
 H    -0.696039    -0.328857    -5.300169
 C    -0.900125     1.692339    -4.582337
 H    -0.686341     2.137396    -5.556866
 C    -4.157907    -0.901289    -1.856100
 H    -3.777328    -0.322956    -2.701839
 C    -3.897970    -1.800014     0.356496
 H    -3.297736    -1.933034     1.260577
 C    -5.428349    -1.455707    -1.933714
 H    -6.048399    -1.330890    -2.823496
 C    -5.172764    -2.355531     0.295665
 H    -5.548494    -2.918489     1.150229
 C    -5.947547    -2.189075    -0.859209
 O    -7.187760    -2.690834    -1.021403
 C    -7.755420    -3.435727     0.018909
 H    -7.864829    -2.837908     0.941110
 H    -8.751368    -3.745476    -0.322466
 H    -7.161611    -4.337542     0.250726
 C    -1.708998     1.059733     1.990118
 H    -0.926113     0.339485     2.245346
 C    -3.285501     1.920869     0.391726
 H    -3.772830     1.877678    -0.585647
 C    -2.147145     1.982026     2.928359
 H    -1.715096     2.016091     3.929740
 C    -3.723646     2.864627     1.317399
 H    -4.524310     3.550685     1.040150
 C    -3.147079     2.903785     2.595540
 O    -3.499988     3.778179     3.557909
 C    -4.507658     4.711505     3.289109
 H    -5.469723     4.222804     3.054234
 H    -4.629696     5.313947     4.198228
 H    -4.237238     5.380126     2.452468
 C     2.297911     0.816833     3.147969
 H     2.760728    -0.170921     3.202594
 C     1.123291     2.516546     1.869569
 C     0.438621     3.053660     0.646371
 H     0.197258     2.267714    -0.076393
 H     1.068519     3.787754     0.119064
 H    -0.499321     3.553293     0.930502
 C     2.244953     1.604669     4.291061
 H     2.666253     1.232427     5.227580
 C     1.096579     3.299771     3.032215
 H     0.597769     4.272176     2.990956
 C     1.650162     2.863815     4.229522
 H     1.602468     3.498389     5.117773
 C     4.542989    -0.177176     1.102707
 H     4.524435     0.893111     1.320935
 C     3.423447    -2.211890     0.492433
 H     2.507131    -2.748604     0.230362
 C     5.748120    -0.853758     1.170282
 H     6.674498    -0.341557     1.437016
 C     4.633156    -2.906414     0.544359
 H     4.642356    -3.972937     0.319155
 C     5.805146    -2.228756     0.890465
 O     7.020100    -2.802485     0.979974
 C     7.139729    -4.171775     0.713299
 H     6.839436    -4.416429    -0.320873
 H     8.198864    -4.427030     0.844960
 H     6.536432    -4.779948     1.410150
 C     1.905385     0.428560    -2.200109
 H     1.326270    -0.496454    -2.235681
 C     2.993139     2.152170    -0.929771
 H     3.273799     2.598787     0.027586
 C     2.311861     1.030191    -3.379714
 H     2.054639     0.605809    -4.350679
 C     3.398914     2.776775    -2.107939
 H     3.984586     3.694513    -2.049438
 C     3.053747     2.217481    -3.344467
 O     3.389200     2.746628    -4.538335
 C     4.138073     3.928001    -4.566035
 H     5.121293     3.804247    -4.078306
 H     4.296753     4.176538    -5.623175
 H     3.605445     4.764698    -4.079624
