 100
scf done:    -2910.912479
 C     1.605276     0.130767     3.329001
 H     1.393555    -0.539818     4.177111
 H     2.563041    -0.231351     2.919740
 C     1.758761     1.566954     3.809691
 H     0.842388     1.941583     4.293900
 H     2.578798     1.668720     4.544762
 H     1.991831     2.254834     2.980601
Rh    -0.005515     0.022166     1.915436
 C     2.938913     1.204520     0.476554
 O     2.787470    -1.397982     0.678499
 O     1.323982    -0.308935    -1.121107
 C    -3.012341    -1.196591     0.627349
 O    -2.784127     1.402431     0.677100
 O    -1.403910     0.171069    -1.107741
 P    -1.755848     0.104154     0.507268
 P     1.732081    -0.142191     0.467707
 C    -1.101160    -0.231629     3.419471
 O    -1.724971    -0.464169     4.350735
 C     2.442662     2.486053     0.207424
 H     1.377126     2.629781     0.007013
 C     4.298407     1.034891     0.744691
 H     4.685237     0.035632     0.950403
 C     3.301773     3.577986     0.191225
 H     2.902355     4.571634    -0.029918
 C     5.148290     2.138014     0.736018
 H     6.211989     1.996910     0.946456
 C     4.669084     3.424113     0.460130
 C     5.584166     4.612302     0.483012
 H     6.629946     4.321037     0.310936
 H     5.301491     5.353410    -0.278860
 H     5.539941     5.118419     1.461877
 C     2.399198    -2.719017     0.689495
 C     1.258679    -3.143418     1.367417
 H     0.660591    -2.402698     1.913267
 C     3.222906    -3.616829    -0.006752
 C     4.465889    -3.137178    -0.689076
 H     4.240261    -2.355719    -1.429639
 H     5.167752    -2.695752     0.036180
 H     4.975003    -3.964206    -1.201644
 C     0.893458    -4.487783     1.323719
 H    -0.004624    -4.817822     1.851730
 C     2.831500    -4.958726    -0.028887
 H     3.453657    -5.673678    -0.574042
 C     1.676073    -5.397773     0.617092
 H     1.395437    -6.452575     0.575370
 C     2.107731    -0.763116    -2.151738
 C     3.230917    -0.055923    -2.577318
 H     3.510151     0.866668    -2.067865
 C     1.685764    -1.938547    -2.793610
 C     0.455259    -2.655790    -2.330561
 H    -0.351431    -1.943018    -2.108547
 H     0.109714    -3.370086    -3.090014
 H     0.653553    -3.218553    -1.403483
 C     3.981845    -0.540224    -3.646883
 H     4.865776     0.009221    -3.978594
 C     2.456977    -2.395268    -3.866303
 H     2.147282    -3.308796    -4.381094
 C     3.598095    -1.715045    -4.289419
 H     4.181577    -2.098876    -5.129233
 C    -4.378934    -0.956662     0.790337
 H    -4.739839     0.070926     0.854972
 C    -2.549980    -2.515730     0.542060
 H    -1.479433    -2.710850     0.427871
 C    -5.267351    -2.026587     0.856575
 H    -6.335517    -1.829747     0.983715
 C    -3.447372    -3.575618     0.596295
 H    -3.074263    -4.600431     0.516093
 C    -4.821242    -3.350270     0.758955
 C    -5.780662    -4.498781     0.860757
 H    -5.467500    -5.343098     0.229478
 H    -5.834904    -4.869773     1.897983
 H    -6.797399    -4.203912     0.564682
 C    -2.346123     2.703318     0.613159
 C    -1.170740     3.118244     1.238027
 H    -0.583463     2.385878     1.809181
 C    -3.151544     3.600829    -0.106074
 C    -4.430389     3.138090    -0.731789
 H    -4.258401     2.296114    -1.418477
 H    -5.138085     2.785236     0.035337
 H    -4.909091     3.951733    -1.292845
 C    -0.753889     4.442680     1.117724
 H     0.171110     4.759922     1.605473
 C    -2.709014     4.922982    -0.206265
 H    -3.317549     5.634382    -0.771137
 C    -1.519867     5.347337     0.386548
 H    -1.200031     6.386763     0.284616
 C    -2.214020     0.584284    -2.133936
 C    -3.358909    -0.127272    -2.489496
 H    -3.630607    -1.022008    -1.929142
 C    -1.798516     1.718769    -2.850486
 C    -0.540401     2.437006    -2.471079
 H    -0.688987     3.035689    -1.557419
 H     0.267706     1.722051    -2.262026
 H    -0.222587     3.118721    -3.271461
 C    -4.139771     0.315117    -3.555840
 H    -5.040678    -0.238109    -3.830917
 C    -2.599159     2.133479    -3.918441
 H    -2.293861     3.014653    -4.489266
 C    -3.763779     1.451475    -4.268164
 H    -4.370634     1.802163    -5.105903
