  62
scf done:    -2684.105432
 C    -3.929382     1.396537     0.036486
 H    -4.840737     1.016906     0.523727
 H    -3.682224     2.325668     0.574113
 C    -4.211976     1.675940    -1.432454
 H    -4.537321     0.765590    -1.961961
 H    -5.011950     2.428361    -1.571659
 H    -3.324731     2.057623    -1.967229
Rh    -2.365425    -0.025699    -0.021455
 C     0.873280     1.611511    -0.352916
 C    -1.271477     3.426372    -0.388698
 C    -0.618700     1.991955     2.062118
 C     0.772480    -1.679171     0.298568
 C    -1.397684    -3.427510    -0.222549
 C    -0.410069    -1.745640    -2.368268
 P    -0.844284    -1.693418    -0.569440
 P    -0.860652     1.732782     0.249985
 C    -3.522164    -1.140160     0.866514
 O    -4.172658    -1.761668     1.590051
 C     1.995285     1.620559     0.481702
 H     1.883791     1.704693     1.562937
 C     1.076358     1.490341    -1.734785
 H     0.213838     1.482765    -2.408538
 C     3.280985     1.490580    -0.037774
 H     4.147633     1.464181     0.624858
 C     2.353434     1.365289    -2.271198
 H     2.505066     1.263471    -3.347194
 C     3.452058     1.352952    -1.411530
Cl     5.043025     1.118245    -2.056295
 H    -2.331609     3.606053    -0.155226
 C    -0.395580     4.565469     0.103381
 H     0.671422     4.370121    -0.086168
 H    -0.519765     4.739921     1.182742
 H    -1.219692     3.338923    -1.486151
 H    -0.658283     5.504224    -0.408397
 H     0.109903     2.804965     2.212011
 C    -1.903803     2.267132     2.825095
 H    -2.625131     1.450448     2.678176
 H    -2.384944     3.200567     2.494474
 H    -0.149180     1.065073     2.427948
 H    -1.696763     2.365764     3.901476
 C     0.739829    -1.568468     1.696621
 H    -0.226891    -1.518716     2.207533
 C     2.017272    -1.703635    -0.337719
 H     2.087154    -1.757857    -1.424357
 C     1.912268    -1.484764     2.440202
 H     1.883253    -1.389187     3.526964
 C     3.199906    -1.615648     0.392153
 H     4.166110    -1.601683    -0.114867
 C     3.139779    -1.499330     1.777474
Cl     4.606080    -1.316591     2.682833
 H    -1.558173    -3.472278     0.866921
 C    -2.663944    -3.829022    -0.962397
 H    -2.513940    -3.852816    -2.052345
 H    -3.487934    -3.130490    -0.759696
 H    -0.564638    -4.112755    -0.447268
 H    -2.990930    -4.832885    -0.651738
 H     0.255872    -0.884155    -2.533010
 C     0.190558    -3.025566    -2.934755
 H    -0.526845    -3.857789    -2.910379
 H     1.085121    -3.353464    -2.386192
 H    -1.347465    -1.495333    -2.891055
 H     0.482361    -2.879048    -3.986339
