  78
scf done:    -3142.029355
 C     1.831083     0.592252     2.826549
 H     1.601052     0.621357     3.898763
 H     2.583787    -0.189026     2.650948
 C     2.225878     1.937655     2.250280
 H     2.178976     2.757733     2.981552
 H     3.219378     1.929608     1.776089
 H     1.528343     2.258061     1.414033
Rh     0.151338     0.611300     1.572798
 C     2.913952    -0.574685    -0.226100
 O     1.586674    -2.349355     1.149778
 O     0.451009    -1.470931    -0.981746
 C    -2.856513     0.233282    -0.280426
 O    -2.113186     2.676152     0.174079
 O    -0.644910     1.374220    -1.468216
 P    -1.355543     1.221894     0.007410
 P     1.232142    -0.944545     0.370276
 C    -1.053502     0.552209     3.003993
 O    -1.807856     0.314688     3.841677
 C     3.055178     0.585612    -0.999508
 H     2.168991     1.186036    -1.231199
 C     4.042300    -1.337078     0.083451
 H     3.927212    -2.233437     0.695640
 C     4.301836     0.968343    -1.479619
 H     4.421568     1.865583    -2.088893
 C     5.298833    -0.958301    -0.385352
 H     6.187885    -1.545180    -0.148513
 C     5.418493     0.189478    -1.166979
Cl     6.976902     0.664671    -1.753206
 C     0.649769    -2.924937     2.072945
 H    -0.258584    -2.294295     2.076489
 C     1.256109    -2.905058     3.459252
 H     1.442396    -1.872014     3.779355
 H     2.208553    -3.457790     3.469764
 H     0.573250    -3.374021     4.183341
 C     0.307871    -4.321031     1.594804
 H    -0.140485    -4.297167     0.591800
 H     1.213108    -4.946477     1.552083
 H    -0.409028    -4.797153     2.280150
 C     0.903007    -2.560470    -1.796403
 H     1.551103    -3.209690    -1.181744
 C     1.685985    -2.044658    -2.989348
 H     2.593235    -1.511607    -2.678074
 H     1.065972    -1.355628    -3.582204
 H     1.985851    -2.883079    -3.635922
 C    -0.329618    -3.336777    -2.216114
 H    -0.875877    -3.716819    -1.340975
 H    -1.011697    -2.688066    -2.786267
 H    -0.051997    -4.193672    -2.847612
 C    -4.113566     0.803704    -0.505958
 H    -4.220512     1.889457    -0.481659
 C    -2.724834    -1.160166    -0.274331
 H    -1.741722    -1.601025    -0.098948
 C    -5.221600    -0.004269    -0.745599
 H    -6.206880     0.430927    -0.920439
 C    -3.823171    -1.976251    -0.519752
 H    -3.726156    -3.063141    -0.525536
 C    -5.067021    -1.390147    -0.756809
Cl    -6.440336    -2.399033    -1.060198
 C    -1.344634     3.850858     0.461356
 H    -0.296524     3.668606     0.156184
 C    -1.387080     4.143060     1.947326
 H    -0.955816     3.306789     2.515778
 H    -2.427295     4.289255     2.276015
 H    -0.814955     5.054555     2.177307
 C    -1.914210     4.973985    -0.380339
 H    -1.870185     4.726418    -1.450562
 H    -2.966749     5.152234    -0.111424
 H    -1.352912     5.905525    -0.214911
 C    -1.355027     1.741608    -2.655482
 H    -2.300308     2.234643    -2.365237
 C    -1.659809     0.501454    -3.472209
 H    -2.287748    -0.199721    -2.906285
 H    -0.724388    -0.011758    -3.739045
 H    -2.189252     0.770914    -4.398415
 C    -0.487737     2.735607    -3.400778
 H    -0.272666     3.613364    -2.774562
 H     0.470372     2.268828    -3.677198
 H    -0.985790     3.076415    -4.320679
