  96
scf done:    -2458.765813
 C     1.162635    -1.701068    -2.912745
 H     1.132415    -1.379487    -3.966181
 H     2.222738    -1.626042    -2.616368
 C     0.713604    -3.149781    -2.780485
 H    -0.320909    -3.294422    -3.131554
 H     1.354880    -3.834797    -3.366804
 H     0.753118    -3.496656    -1.734896
Rh    -0.171051    -0.563257    -1.685583
 C     2.372792    -1.942323     0.176793
 O     2.956661     0.414869    -1.090787
 O     1.600035     0.472190     1.039331
 C    -1.883993     1.903994     0.298711
 O    -3.254198    -0.226120    -0.421168
 O    -1.367677    -0.578691     1.279803
 P    -1.671207     0.151303    -0.163787
 P     1.688606    -0.343760    -0.389426
 C    -1.220740    -0.371172    -3.211763
 O    -1.782678    -0.136590    -4.187327
 C     1.427215    -2.638325     0.948137
 H     0.453315    -2.172052     1.134747
 C     3.625008    -2.524719    -0.103205
 C     4.695563    -1.860399    -0.922042
 H     4.990067    -0.889710    -0.500422
 H     4.351203    -1.659611    -1.947312
 H     5.583709    -2.504407    -0.979715
 C     1.705785    -3.898206     1.464805
 H     0.958192    -4.423056     2.064084
 C     3.876455    -3.800353     0.423178
 H     4.842947    -4.267476     0.215386
 C     2.941915    -4.482016     1.196465
 H     3.180606    -5.474645     1.586028
 C     2.896280     1.132214    -2.325316
 H     3.907042     1.554872    -2.439849
 H     2.729976     0.419298    -3.147910
 C     1.849513     2.225466    -2.373886
 H     1.930390     2.704353    -3.366067
 H     0.849903     1.749835    -2.342116
 C     1.958245     3.265188    -1.271885
 H     2.964982     3.721617    -1.289690
 H     1.870220     2.753663    -0.302296
 C     0.890931     4.341403    -1.363476
 H     0.949793     4.890882    -2.317171
 H    -0.115626     3.901418    -1.291079
 H     0.984967     5.073562    -0.547144
 C     2.723311     0.540575     1.917808
 H     2.346390     0.292632     2.923911
 H     3.459960    -0.234637     1.650669
 C     3.369056     1.909507     1.918798
 H     4.260481     1.857631     2.569096
 H     3.737300     2.125427     0.902598
 C     2.446729     3.022696     2.392519
 H     2.123313     2.808301     3.427325
 H     1.531371     3.006753     1.781553
 C     3.079916     4.401561     2.319828
 H     3.989872     4.463865     2.938507
 H     3.366906     4.648373     1.285083
 H     2.387301     5.183932     2.665991
 C    -1.140646     2.364585     1.393180
 H    -0.495989     1.662741     1.926029
 C    -2.657986     2.808703    -0.460050
 C    -3.415151     2.402535    -1.691102
 H    -4.263388     1.751154    -1.438295
 H    -2.779045     1.836445    -2.388119
 H    -3.793523     3.287609    -2.220377
 C    -1.196330     3.698359     1.787010
 H    -0.615876     4.038302     2.647658
 C    -2.697653     4.144550    -0.042588
 H    -3.297420     4.854287    -0.618838
 C    -1.989488     4.589875     1.070475
 H    -2.044995     5.640353     1.365919
 C    -3.618239    -1.425672    -1.092359
 H    -4.392165    -1.152728    -1.829339
 H    -2.748484    -1.819397    -1.647134
 C    -4.142737    -2.465359    -0.124139
 H    -4.358695    -3.385622    -0.694729
 H    -3.334087    -2.729648     0.580379
 C    -5.382720    -2.022278     0.639922
 H    -6.207316    -1.860398    -0.076485
 H    -5.187156    -1.035622     1.092529
 C    -5.812298    -3.011217     1.710612
 H    -6.028666    -4.002171     1.279871
 H    -5.019971    -3.149586     2.464689
 H    -6.716814    -2.672907     2.238220
 C    -2.247389    -0.550580     2.396331
 H    -2.467605     0.493522     2.679496
 H    -3.202624    -1.027055     2.127206
 C    -1.573544    -1.289621     3.530847
 H    -2.279528    -1.350857     4.377286
 H    -1.386996    -2.329023     3.206469
 C    -0.265384    -0.646409     3.968704
 H    -0.478598     0.352175     4.390635
 H     0.345374    -0.472682     3.069205
 C     0.514288    -1.480143     4.970896
 H    -0.073262    -1.677262     5.882272
 H     0.795151    -2.454514     4.539228
 H     1.444343    -0.977802     5.278569
