  94
scf done:    -3751.281338
 C     1.530301    -0.444492     3.308240
 H     1.095313    -1.009867     4.147696
 H     2.313622    -1.106783     2.903689
 C     2.153345     0.852693     3.804289
 H     1.411626     1.510769     4.284921
 H     2.951340     0.666904     4.546770
 H     2.613681     1.428693     2.984983
Rh    -0.008700     0.005722     1.881687
 C     3.172989     0.129426     0.482676
 O     2.152157    -2.268837     0.655856
 O     1.165277    -0.734168    -1.145400
 C    -3.241543    -0.106764     0.583385
 O    -2.140964     2.255225     0.639927
 O    -1.264835     0.627397    -1.147843
 P    -1.613035     0.687751     0.466073
 P     1.580587    -0.732636     0.447748
 C    -1.135883     0.139461     3.380784
 O    -1.807265     0.135056     4.307205
 C     3.141032     1.502878     0.211462
 H     2.190531     1.997044    -0.008987
 C     4.387954    -0.490594     0.782940
 H     4.408547    -1.560876     0.993830
 C     4.312307     2.250829     0.221147
 H     4.296411     3.320228     0.005527
 C     5.564966     0.252524     0.805409
 H     6.520440    -0.218421     1.041520
 C     5.519768     1.617337     0.521007
Cl     6.980897     2.541486     0.545237
 C     1.339896    -3.382716     0.654404
 C     0.120897    -3.400692     1.328183
 H    -0.191627    -2.506577     1.882202
 C     1.814273    -4.500259    -0.048728
 C     3.150253    -4.466975    -0.722980
 H     3.208136    -3.651513    -1.458813
 H     3.956057    -4.295305     0.008215
 H     3.351210    -5.414718    -1.239811
 C    -0.678514    -4.541095     1.271618
 H    -1.636310    -4.553267     1.797693
 C     0.990522    -5.629419    -0.084028
 H     1.335650    -6.508602    -0.634684
 C    -0.248052    -5.655962     0.556268
 H    -0.869435    -6.552712     0.504423
 C     1.755946    -1.424968    -2.175052
 C     3.055993    -1.140100    -2.588185
 H     3.628356    -0.369003    -2.071970
 C     0.963951    -2.383352    -2.827001
 C    -0.441105    -2.640814    -2.376974
 H    -0.962867    -1.696272    -2.167566
 H    -0.998923    -3.202099    -3.138540
 H    -0.453827    -3.231243    -1.445980
 C     3.606170    -1.845787    -3.656702
 H     4.626701    -1.628085    -3.979541
 C     1.542632    -3.070363    -3.898112
 H     0.944965    -3.821585    -4.421349
 C     2.850413    -2.816849    -4.309494
 H     3.275154    -3.372266    -5.148564
 C    -4.441519     0.589255     0.753442
 H    -4.426209     1.677802     0.825248
 C    -3.256658    -1.504390     0.494624
 H    -2.317569    -2.054157     0.380344
 C    -5.647938    -0.101662     0.822299
 H    -6.591343     0.429664     0.957516
 C    -4.457665    -2.202144     0.549178
 H    -4.479132    -3.290287     0.472396
 C    -5.648412    -1.492431     0.713687
Cl    -7.146862    -2.352417     0.791180
 C    -1.287008     3.332240     0.585995
 C    -0.045326     3.320936     1.219991
 H     0.254161     2.431602     1.791340
 C    -1.736234     4.452339    -0.131072
 C    -3.093043     4.455563    -0.763695
 H    -3.216240     3.607499    -1.453260
 H    -3.882516     4.365383    -0.000477
 H    -3.262025     5.385075    -1.323359
 C     0.796763     4.426148     1.110519
 H     1.769972     4.410774     1.607354
 C    -0.870339     5.546165    -0.220970
 H    -1.197626     6.424422    -0.783899
 C     0.388077     5.539565     0.380430
 H     1.041890     6.409494     0.287190
 C    -1.881604     1.301017    -2.172351
 C    -3.198557     1.023009    -2.534370
 H    -3.759611     0.267963    -1.983526
 C    -1.102477     2.232023    -2.878253
 C     0.323833     2.477186    -2.492740
 H     0.384875     3.082455    -1.573285
 H     0.841149     1.528352    -2.292410
 H     0.855835     3.018356    -3.286652
 C    -3.779410     1.712230    -3.597328
 H    -4.813341     1.499487    -3.878252
 C    -1.711264     2.902250    -3.943192
 H    -1.123006     3.631594    -4.506571
 C    -3.037012     2.658926    -4.299278
 H    -3.485642     3.201248    -5.134472
