  90
scf done:    -3299.146839
 C     2.140146    -0.365758    -3.032135
 H     1.887050    -0.088857    -4.067131
 H     2.814353     0.431145    -2.676306
 C     2.849997    -1.710320    -2.997703
 H     2.219385    -2.518853    -3.402039
 H     3.782717    -1.699084    -3.592304
 H     3.137179    -2.001804    -1.973776
Rh     0.389726    -0.614492    -1.833335
 C     3.279542     0.252650     0.041408
 O     1.822015     2.197142    -0.914256
 O     0.881966     0.890231     1.095368
 C    -2.436651     0.596129    -0.243558
 O    -2.670873    -1.802326    -1.178272
 O    -1.349521    -1.444147     1.011890
 P    -1.455014    -0.901203    -0.538060
 P     1.558802     0.668838    -0.389164
 C    -0.525345    -0.825917    -3.447476
 O    -1.101010    -0.779251    -4.441060
 C     3.527977    -1.007796     0.597211
 H     2.701721    -1.707527     0.750686
 C     4.348725     1.125673    -0.176688
 H     4.154336     2.103989    -0.619794
 C     4.818074    -1.389835     0.948387
 H     5.017397    -2.371025     1.381674
 C     5.645972     0.753139     0.164688
 H     6.486454     1.428129    -0.004691
 C     5.871681    -0.501989     0.728227
Cl     7.481714    -0.969836     1.154814
 C     0.882076     2.839686    -1.777160
 H     1.471663     3.544452    -2.384297
 H     0.443651     2.079711    -2.448128
 C    -0.201963     3.556423    -1.002117
 H    -0.945714     3.928267    -1.727968
 H    -0.736548     2.817953    -0.381545
 C     0.293168     4.707085    -0.138382
 H     0.758456     5.471730    -0.785663
 H     1.100634     4.343767     0.519127
 C    -0.807886     5.337251     0.698365
 H    -1.634430     5.704579     0.069966
 H    -1.243127     4.604446     1.396172
 H    -0.434211     6.184829     1.292624
 C     1.496458     1.715157     2.080561
 H     2.323710     1.155457     2.553039
 H     1.927394     2.608069     1.600119
 C     0.457052     2.109459     3.103843
 H     0.919960     2.823124     3.807363
 H    -0.348136     2.659126     2.586725
 C    -0.125693     0.926550     3.862664
 H     0.682599     0.418844     4.418416
 H    -0.493887     0.191345     3.129946
 C    -1.244326     1.312641     4.815253
 H    -0.898961     2.033274     5.573765
 H    -2.082284     1.783649     4.275838
 H    -1.645386     0.436185     5.346446
 C    -2.985530     1.258476    -1.348190
 H    -2.874678     0.834572    -2.349328
 C    -2.584587     1.148178     1.029825
 H    -2.165864     0.623734     1.888275
 C    -3.663149     2.461440    -1.187356
 H    -4.089451     2.985685    -2.043937
 C    -3.256077     2.355889     1.202691
 H    -3.372778     2.796595     2.194351
 C    -3.783620     3.008446     0.090492
Cl    -4.585919     4.529710     0.294449
 C    -2.426008    -3.011501    -1.879608
 H    -3.089325    -2.998534    -2.759949
 H    -1.384180    -3.028368    -2.248527
 C    -2.709297    -4.227672    -1.021797
 H    -2.534690    -5.124288    -1.642857
 H    -1.971981    -4.274694    -0.202408
 C    -4.117262    -4.255036    -0.444896
 H    -4.846052    -4.190564    -1.272411
 H    -4.266490    -3.342698     0.155260
 C    -4.400179    -5.490270     0.394078
 H    -4.284130    -6.413654    -0.196330
 H    -3.710075    -5.559129     1.249924
 H    -5.424750    -5.479811     0.795612
 C    -0.231200    -2.195698     1.459230
 H     0.039003    -2.962746     0.709643
 H     0.628224    -1.516727     1.575857
 C    -0.575671    -2.840291     2.783701
 H     0.335817    -3.327762     3.172002
 H    -0.826840    -2.042354     3.503534
 C    -1.717709    -3.841893     2.709599
 H    -1.426234    -4.671190     2.041064
 H    -2.580815    -3.352731     2.229510
 C    -2.121816    -4.395893     4.065159
 H    -1.281100    -4.909589     4.559000
 H    -2.457736    -3.591714     4.739437
 H    -2.946872    -5.118797     3.975708
