  94
scf done:    -3751.266771
 C    -0.883393     2.916032    -2.105353
 H    -0.740343     3.188090    -3.162681
 H    -1.929943     2.574397    -2.040879
 C    -0.659897     4.121117    -1.201481
 H    -1.359468     4.947343    -1.431042
 H    -0.802422     3.871722    -0.136696
 H     0.361307     4.523685    -1.298619
Rh     0.522568     1.432477    -1.500536
 C    -1.975633     1.193489     0.862721
 O    -2.509537     0.111283    -1.626779
 O    -0.901392    -1.139572    -0.059673
 C     2.380505    -1.616652    -1.099026
 O     3.590419     0.590637    -0.432096
 O     1.642008    -0.137946     1.076343
 P     2.014964     0.067144    -0.542740
 P    -1.254361     0.391951    -0.602541
 C     1.700747     2.205692    -2.753937
 O     2.370474     2.615618    -3.586742
 C    -1.327129     0.977458     2.087274
 H    -0.489164     0.278363     2.136909
 C    -2.990195     2.156559     0.787909
 H    -3.489060     2.370168    -0.158168
 C    -1.714712     1.671716     3.227611
 H    -1.214879     1.502666     4.182598
 C    -3.382924     2.856799     1.924145
 H    -4.179068     3.600656     1.871700
 C    -2.749032     2.603558     3.139559
Cl    -3.240424     3.468432     4.554815
 C    -3.871071     0.221932    -1.480523
 C    -4.579459    -0.375064    -0.440299
 H    -4.060883    -0.952261     0.324748
 C    -4.544959     0.961355    -2.452667
 H    -3.966447     1.421390    -3.256047
 C    -5.962372    -0.216057    -0.379300
 H    -6.507826    -0.681902     0.445856
 C    -5.926191     1.104249    -2.377523
 H    -6.443439     1.688587    -3.143642
 C    -6.663485     0.520365    -1.339052
 C    -8.156935     0.659684    -1.278554
 H    -8.538920     0.467084    -0.265909
 H    -8.649976    -0.055406    -1.958217
 H    -8.480425     1.667385    -1.579205
 C    -1.812944    -2.123162     0.221316
 C    -2.333648    -2.895735    -0.817921
 H    -2.028308    -2.682144    -1.843155
 C    -2.192622    -2.373250     1.537860
 H    -1.775618    -1.768466     2.343517
 C    -3.251723    -3.898896    -0.533724
 H    -3.665305    -4.490139    -1.355269
 C    -3.112815    -3.386537     1.805246
 H    -3.411106    -3.573763     2.840260
 C    -3.663615    -4.161801     0.780345
 C    -4.655718    -5.250677     1.068446
 H    -4.238918    -6.242405     0.829321
 H    -5.568149    -5.129644     0.464076
 H    -4.949481    -5.258481     2.127282
 C     3.525910    -2.320517    -0.705758
 H     4.272599    -1.836716    -0.073832
 C     1.440437    -2.234276    -1.929244
 H     0.563383    -1.668369    -2.253297
 C     3.714193    -3.635236    -1.114802
 H     4.598664    -4.196151    -0.809410
 C     1.617599    -3.551169    -2.341526
 H     0.887497    -4.042860    -2.985903
 C     2.752746    -4.244019    -1.923293
Cl     2.979805    -5.885479    -2.422598
 C     3.882408     1.916607    -0.244617
 C     5.018955     2.419872    -0.877190
 H     5.619286     1.746780    -1.491867
 C     3.087586     2.756513     0.536214
 H     2.201342     2.364262     1.038692
 C     5.352378     3.760741    -0.730042
 H     6.242152     4.146038    -1.235949
 C     3.432931     4.101749     0.662718
 H     2.796883     4.754381     1.266677
 C     4.564684     4.630585     0.037376
 C     4.934064     6.079008     0.177495
 H     5.903863     6.198322     0.687161
 H     4.181279     6.630966     0.757438
 H     5.024162     6.565688    -0.806498
 C     2.270400    -1.037444     1.899172
 C     3.439289    -0.680166     2.567836
 H     3.858265     0.316895     2.419196
 C     1.718714    -2.306517     2.070428
 H     0.812820    -2.568571     1.521391
 C     4.055946    -1.606342     3.406028
 H     4.976304    -1.324591     3.925132
 C     2.346638    -3.217537     2.913609
 H     1.913982    -4.214255     3.036676
 C     3.525024    -2.887948     3.595358
 C     4.181073    -3.870144     4.522248
 H     5.256842    -3.668874     4.627840
 H     4.060146    -4.903527     4.165396
 H     3.738021    -3.820180     5.531146
