  70
scf done:    -1918.469168
 C     1.307601    -2.765794     0.914120
 H     1.670100    -3.534753     0.212480
 H     2.207823    -2.339838     1.385032
 C     0.419288    -3.406964     1.971782
 H    -0.417732    -3.963719     1.520504
 H     0.976089    -4.118775     2.610719
 H    -0.028679    -2.661221     2.651919
Rh     0.077710    -1.282156     0.016496
 C     1.799028     0.995535     2.205422
 O     3.181701    -0.074735     0.264722
 O     1.395938     1.668781    -0.407285
 C    -1.403034     1.224457    -2.046992
 O    -3.047940    -0.256858    -0.641471
 O    -1.584284     1.363307     0.746414
 P    -1.495503     0.271079    -0.486973
 P     1.605131     0.316752     0.519627
 C    -0.513251    -2.611938    -1.145101
 O    -0.731784    -3.358781    -1.994640
 H     0.857623     1.536760     2.395892
 C     2.040583    -0.079658     3.252819
 H     2.987331    -0.606347     3.063913
 H     1.234117    -0.827837     3.250599
 H     2.621198     1.729049     2.197467
 H     2.091159     0.359725     4.260299
 C     3.571895    -1.029576    -0.732230
 H     2.777451    -1.792860    -0.790522
 C     4.858708    -1.660333    -0.248816
 H     4.707576    -2.137142     0.730177
 H     5.649265    -0.900325    -0.147193
 H     5.202104    -2.427547    -0.958404
 C     3.697731    -0.364870    -2.087788
 H     2.727311     0.042343    -2.406495
 H     4.436553     0.451609    -2.059922
 H     4.020901    -1.098113    -2.841905
 C     2.330897     2.752052    -0.457759
 H     3.299115     2.397241    -0.062201
 C     1.827459     3.919015     0.371936
 H     1.663502     3.635489     1.419789
 H     0.875320     4.289333    -0.034821
 H     2.555095     4.744383     0.350012
 C     2.506271     3.140809    -1.912852
 H     2.876379     2.295462    -2.506132
 H     1.543746     3.465687    -2.337864
 H     3.220978     3.972099    -2.006807
 H    -1.000994     0.482346    -2.757458
 C    -2.668309     1.855845    -2.606099
 H    -3.059035     2.658608    -1.964833
 H    -3.461789     1.104124    -2.715084
 H    -0.585110     1.943475    -1.884147
 H    -2.470090     2.294709    -3.596174
 C    -3.520894    -1.432164     0.024854
 H    -2.647918    -1.951780     0.464511
 C    -4.158173    -2.327104    -1.016823
 H    -3.425401    -2.610745    -1.785173
 H    -4.994763    -1.805867    -1.507828
 H    -4.545019    -3.246832    -0.553185
 C    -4.474400    -1.033128     1.132288
 H    -3.961095    -0.416914     1.883059
 H    -5.320050    -0.456839     0.725567
 H    -4.873215    -1.925192     1.637798
 C    -2.580637     2.377745     0.887116
 H    -3.451989     2.105853     0.265619
 C    -2.019015     3.715752     0.443872
 H    -1.658735     3.680207    -0.593020
 H    -1.174108     4.000019     1.088067
 H    -2.787670     4.500260     0.514093
 C    -3.001108     2.404038     2.343273
 H    -3.411780     1.433932     2.653168
 H    -2.133127     2.627762     2.982506
 H    -3.766690     3.175710     2.513815
