 100
scf done:    -2910.907582
 C     1.100396    -3.436955     1.222299
 H     1.398935    -3.734764     2.240297
 H     0.099551    -3.877723     1.073125
 C     2.076796    -3.994966     0.196062
 H     3.095496    -3.600893     0.344207
 H     2.143694    -5.098248     0.245255
 H     1.778025    -3.742305    -0.834787
Rh     1.152136    -1.317078     0.977604
 C    -0.846009    -2.723008    -1.510684
 O    -2.058605    -2.292696     0.782705
 O    -1.481504    -0.213440    -0.620469
 C     0.158296     2.100213     0.975444
 O     2.709415     1.676727     0.632301
 O     1.200977     0.900206    -1.301781
 P     1.297576     0.833739     0.363659
 P    -0.809380    -1.626564    -0.075920
 C     2.392878    -1.267852     2.391939
 O     3.047385    -1.234098     3.331925
 C    -0.137641    -2.295881    -2.641732
 H     0.350926    -1.316378    -2.637206
 C    -1.452968    -3.980375    -1.506935
 H    -2.006647    -4.309975    -0.625570
 C    -0.059482    -3.116154    -3.759985
 H     0.485476    -2.771007    -4.642930
 C    -1.358063    -4.796731    -2.631741
 H    -1.836184    -5.780045    -2.623305
 C    -0.663492    -4.381859    -3.773280
 C    -0.541495    -5.272415    -4.974241
 H    -0.698930    -4.711265    -5.907596
 H     0.465761    -5.717401    -5.029939
 H    -1.266934    -6.097208    -4.941939
 C    -2.416167    -1.723484     1.989232
 C    -3.596798    -0.989909     2.059466
 H    -4.215319    -0.884492     1.166733
 C    -1.608588    -1.876365     3.115717
 H    -0.685958    -2.452528     3.038571
 C    -3.958777    -0.390904     3.264429
 H    -4.886562     0.185874     3.313030
 C    -1.981892    -1.262399     4.307700
 H    -1.339318    -1.375326     5.185132
 C    -3.154976    -0.502319     4.404225
 C    -3.517649     0.193494     5.684299
 H    -4.581678     0.469000     5.706997
 H    -2.932297     1.120254     5.809224
 H    -3.310074    -0.438616     6.560525
 C    -2.755477     0.058327    -1.037693
 C    -3.197337     1.369644    -0.844573
 H    -2.529785     2.084567    -0.360693
 C    -3.598464    -0.881348    -1.628835
 H    -3.263150    -1.906663    -1.779361
 C    -4.478125     1.732093    -1.243862
 H    -4.812734     2.760501    -1.080165
 C    -4.881495    -0.497393    -2.016959
 H    -5.537251    -1.243667    -2.474050
 C    -5.348420     0.808199    -1.837534
 C    -6.721557     1.216085    -2.287150
 H    -6.686370     1.717565    -3.268955
 H    -7.184746     1.920909    -1.580432
 H    -7.387860     0.347308    -2.386925
 C     0.213350     3.452138     0.609098
 H     0.994648     3.811674    -0.062106
 C    -0.832217     1.674255     1.866671
 H    -0.869271     0.624438     2.169613
 C    -0.736616     4.341658     1.098957
 H    -0.694053     5.390626     0.792827
 C    -1.771035     2.575106     2.359640
 H    -2.544449     2.214646     3.042399
 C    -1.745756     3.920476     1.976955
 C    -2.750256     4.894800     2.517415
 H    -3.687401     4.392626     2.797184
 H    -2.362486     5.394038     3.421267
 H    -2.983590     5.682466     1.786205
 C     3.933982     1.071583     0.547845
 C     4.935608     1.530829     1.403905
 H     4.700056     2.338191     2.099566
 C     4.203722     0.036189    -0.348200
 H     3.426174    -0.318252    -1.027512
 C     6.196898     0.949791     1.364513
 H     6.972509     1.315668     2.043307
 C     5.473356    -0.540747    -0.365480
 H     5.671530    -1.357025    -1.065388
 C     6.490897    -0.101873     0.484902
 C     7.851003    -0.737585     0.474619
 H     8.043411    -1.281104     1.414076
 H     8.647374     0.015576     0.368034
 H     7.952593    -1.455679    -0.351175
 C     1.138652     2.043530    -2.055113
 C     2.287628     2.790111    -2.312838
 H     3.244838     2.466426    -1.900842
 C    -0.089519     2.437424    -2.583062
 H    -0.974527     1.837714    -2.368078
 C     2.191239     3.946363    -3.083715
 H     3.093789     4.533238    -3.276115
 C    -0.165784     3.592509    -3.354650
 H    -1.135255     3.898849    -3.757621
 C     0.968215     4.371529    -3.616464
 C     0.880632     5.602848    -4.471287
 H     1.674157     6.322975    -4.224439
 H    -0.088891     6.108481    -4.351888
 H     0.987396     5.352188    -5.540187
