  90
scf done:    -3450.483990
 C    -1.305989     1.078297    -3.347224
 H    -1.292858     0.604433    -4.341244
 H    -2.356138     1.071146    -3.020851
 C    -0.792906     2.507733    -3.437869
 H     0.251503     2.556045    -3.787304
 H    -1.394732     3.117473    -4.138950
 H    -0.833846     3.027867    -2.464439
Rh    -0.011859     0.187953    -1.947277
 C    -1.936655     1.369106     0.776031
 C    -3.456306    -0.210519    -1.085572
 C    -1.685599    -1.543431     0.570563
 C     1.903237    -1.470539     0.682614
 C     3.427799     0.151165    -1.106509
 C     1.744199     1.442813     0.716154
 P     1.731621    -0.008644    -0.406211
 P    -1.753372    -0.004534    -0.421020
 C     0.868865    -0.576035    -3.378316
 O     1.303239    -1.218694    -4.230982
 C    -1.414729     1.326612     2.073225
 H    -0.980848     0.401580     2.455153
 C    -2.462594     2.581815     0.306175
 H    -2.855865     2.646011    -0.712113
 C    -1.432854     2.451349     2.893177
 H    -1.017182     2.413891     3.900957
 C    -2.493010     3.711699     1.115662
 H    -2.908431     4.651882     0.749415
 C    -1.976733     3.637249     2.408843
Cl    -2.001370     5.047585     3.418294
 C    -3.603500    -0.989423    -2.240146
 H    -2.707910    -1.350739    -2.754744
 C    -4.603302     0.250608    -0.435816
 H    -4.518176     0.847368     0.475314
 C    -4.867125    -1.292856    -2.730646
 H    -4.959613    -1.903300    -3.633367
 C    -5.867855    -0.049652    -0.939860
 H    -6.754391     0.322754    -0.418879
 C    -6.024064    -0.823395    -2.093569
 C    -7.383322    -1.129151    -2.650265
 H    -7.469888    -2.188162    -2.937076
 H    -8.177627    -0.904604    -1.924600
 H    -7.581186    -0.532131    -3.555890
 C    -2.415703    -1.727014     1.748712
 H    -2.999532    -0.904889     2.169769
 C    -0.997114    -2.634147     0.027104
 H    -0.435291    -2.489710    -0.900769
 C    -2.421719    -2.964868     2.386384
 H    -2.991313    -3.089713     3.311538
 C    -1.028629    -3.872749     0.656124
 H    -0.484277    -4.712292     0.215732
 C    -1.731837    -4.059427     1.852913
 C    -1.734347    -5.393637     2.537576
 H    -0.724947    -5.647552     2.898129
 H    -2.417255    -5.405951     3.398436
 H    -2.041475    -6.193717     1.846240
 C     2.446785    -2.643724     0.140674
 H     2.839732    -2.640350    -0.879618
 C     1.381276    -1.514513     1.979911
 H     0.932874    -0.621270     2.416794
 C     2.501520    -3.818041     0.882773
 H     2.933698    -4.727036     0.461393
 C     1.423011    -2.684159     2.732851
 H     1.010519    -2.713347     3.742176
 C     1.990526    -3.828513     2.179819
Cl     2.055530    -5.291167     3.110078
 C     3.593505     0.854043    -2.303267
 H     2.710848     1.220647    -2.834188
 C     4.570048    -0.293791    -0.429878
 H     4.473431    -0.831904     0.516005
 C     4.864975     1.092140    -2.817188
 H     4.968524     1.644906    -3.754966
 C     5.837547    -0.060607    -0.953441
 H     6.715898    -0.422072    -0.411100
 C     6.009988     0.632664    -2.158000
 C     7.377249     0.850656    -2.735520
 H     8.140136     0.932515    -1.947702
 H     7.666771     0.007362    -3.384877
 H     7.415341     1.762434    -3.348793
 C     2.472596     1.504836     1.907690
 H     3.036230     0.635728     2.254930
 C     1.073179     2.592161     0.280983
 H     0.510557     2.556602    -0.657332
 C     2.494584     2.677042     2.659697
 H     3.062315     2.704522     3.593973
 C     1.115849     3.764602     1.024882
 H     0.579928     4.647635     0.667069
 C     1.818428     3.826317     2.235012
 C     1.833343     5.087681     3.045960
 H     2.188275     5.940376     2.446245
 H     0.818830     5.337586     3.394480
 H     2.484958     4.995778     3.925973
