 108
scf done:    -2467.463725
 C    -1.173739     1.327359    -3.219279
 H    -0.851936     1.149160    -4.257085
 H    -2.233964     1.040435    -3.190997
 C    -1.015531     2.805828    -2.893550
 H     0.036111     3.130155    -2.956418
 H    -1.591826     3.452402    -3.583279
 H    -1.362194     3.051733    -1.873879
Rh     0.026651     0.334579    -1.794233
 C    -1.604181     1.076874     1.279949
 C    -3.459486     0.673703    -0.877758
 C    -1.913447    -1.643350     0.293578
 C     1.610223    -1.479830     0.934509
 C     3.361550    -0.464580    -1.078504
 C     1.951843     1.414922     0.841125
 P     1.730328    -0.079196    -0.242665
 P    -1.773945     0.120663    -0.280545
 C     0.965558    -0.311750    -3.225323
 O     1.466474    -0.862627    -4.109633
 C    -1.316919     0.510308     2.525374
 H    -1.247408    -0.571728     2.636908
 C    -1.680972     2.476912     1.203848
 H    -1.892380     2.957302     0.244498
 C    -1.091799     1.313022     3.644675
 H    -0.857506     0.838742     4.602230
 C    -1.482564     3.270776     2.325869
 H    -1.559458     4.357824     2.233158
 C    -1.166030     2.705380     3.569454
 C    -0.887520     3.574272     4.759837
 H     0.099641     4.058066     4.668844
 H    -1.632738     4.378412     4.855298
 H    -0.887704     2.994321     5.693378
 H    -3.208086     1.612002    -1.407054
 C    -4.524516     1.016926     0.166531
 H    -4.123760     1.701746     0.927547
 H    -4.832307     0.105209     0.702989
 C    -5.743954     1.643292    -0.506912
 H    -6.514426     1.870849     0.247923
 H    -5.449345     2.611666    -0.950904
 C    -6.316739     0.745312    -1.598037
 H    -7.163434     1.241541    -2.099719
 H    -6.725607    -0.170333    -1.132808
 C    -5.249740     0.351545    -2.613333
 H    -4.920628     1.246194    -3.172100
 H    -5.665445    -0.344819    -3.359578
 C    -4.040419    -0.277338    -1.929179
 H    -4.357603    -1.212485    -1.437688
 H    -3.273472    -0.555808    -2.667405
 H    -1.010511    -1.754942     0.921973
 C    -1.750623    -2.634769    -0.864874
 H    -0.836183    -2.381848    -1.426040
 H    -2.584357    -2.519285    -1.575330
 C    -1.716201    -4.075079    -0.364208
 H    -1.656592    -4.765165    -1.221656
 H    -0.796749    -4.224744     0.224460
 C    -2.917044    -4.412119     0.511412
 H    -2.836580    -5.443121     0.893595
 H    -3.839822    -4.377638    -0.096324
 C    -3.046153    -3.423039     1.663862
 H    -2.165701    -3.514884     2.326717
 H    -3.929574    -3.656932     2.280344
 C    -3.135751    -1.990607     1.145636
 H    -4.046733    -1.897275     0.532011
 H    -3.253121    -1.283216     1.980491
 C     1.653185    -2.779843     0.406014
 H     1.790092    -2.922877    -0.669616
 C     1.411207    -1.342427     2.311679
 H     1.375756    -0.352459     2.767319
 C     1.510915    -3.892085     1.225351
 H     1.561714    -4.892089     0.785323
 C     1.238502    -2.462428     3.125788
 H     1.073789    -2.322739     4.198164
 C     1.282146    -3.756589     2.602133
 C     1.064885    -4.962880     3.466734
 H     1.136841    -4.713816     4.534756
 H     0.065124    -5.394988     3.292525
 H     1.799646    -5.752548     3.248382
 H     3.050270    -1.255214    -1.787125
 C     4.500279    -1.044180    -0.237377
 H     4.144741    -1.883848     0.377945
 H     4.878739    -0.282687     0.462448
 C     5.641326    -1.502697    -1.143726
 H     6.467108    -1.905319    -0.534529
 H     5.285008    -2.337560    -1.774189
 C     6.141702    -0.374787    -2.039970
 H     6.931406    -0.742207    -2.715402
 H     6.610258     0.403593    -1.410064
 C     5.004251     0.251387    -2.839562
 H     4.608202    -0.482595    -3.563661
 H     5.373794     1.103942    -3.432203
 C     3.866996     0.702621    -1.929188
 H     4.233936     1.504128    -1.264465
 H     3.043093     1.132945    -2.519798
 H     1.089613     1.338107     1.529680
 C     1.746524     2.706138     0.039562
 H     0.796106     2.645587    -0.516607
 H     2.536988     2.801322    -0.722592
 C     1.766316     3.933542     0.944350
 H     1.670429     4.847234     0.335372
 H     0.882639     3.900246     1.602678
 C     3.021906     3.993229     1.806196
 H     2.982233     4.863209     2.482154
 H     3.906385     4.142534     1.160247
 C     3.201778     2.705333     2.601357
 H     2.366342     2.596247     3.317574
 H     4.125921     2.745117     3.200909
 C     3.229984     1.492170     1.676334
 H     4.096980     1.586127     1.001588
 H     3.384941     0.567185     2.252546
