  90
scf done:    -3450.484241
 C     1.536872     0.675818     3.338450
 H     1.365531     0.268940     4.347126
 H     2.542241     0.344300     3.041854
 C     1.469978     2.195742     3.366272
 H     0.476994     2.565784     3.670839
 H     2.203406     2.627311     4.074246
 H     1.694955     2.639598     2.380356
Rh     0.053231     0.166000     1.937189
 C     2.189600     0.795807    -0.789543
 C     3.269961    -1.142348     1.050707
 C     1.198094    -1.966952    -0.575164
 C    -2.199440    -0.914463    -0.705435
 C    -3.276049     1.052428     1.069060
 C    -1.288343     1.875344    -0.710990
 P    -1.671013     0.452966     0.388287
 P     1.673052    -0.489918     0.405932
 C    -0.997792    -0.349176     3.363167
 O    -1.584634    -0.865199     4.210859
 C     1.630579     0.916780    -2.066017
 H     0.972834     0.136076    -2.448095
 C     3.022975     1.824449    -0.325130
 H     3.461658     1.759779     0.674238
 C     1.884935     2.030125    -2.860864
 H     1.427282     2.129012    -3.845796
 C     3.296534     2.936510    -1.113120
 H     3.943514     3.735322    -0.747446
 C     2.713591     3.036925    -2.375549
Cl     2.989850     4.454005    -3.335200
 C     3.220029    -1.925242     2.207807
 H     2.271332    -2.034059     2.741331
 C     4.482060    -0.998192     0.369104
 H     4.524246    -0.400804    -0.545484
 C     4.375479    -2.549215     2.670225
 H     4.336239    -3.161636     3.574261
 C     5.652247    -1.610014     0.829799
 C     6.954870    -1.429348     0.105114
 H     7.455595    -2.394560    -0.066544
 H     6.809283    -0.943262    -0.869787
 H     7.649737    -0.803851     0.689130
 C     5.580298    -2.389712     1.990469
 H     6.483531    -2.879670     2.365315
 C     1.800900    -2.304097    -1.790778
 H     2.532688    -1.637201    -2.251974
 C     0.308901    -2.864307     0.026360
 H    -0.149459    -2.580762     0.979927
 C     1.474467    -3.509441    -2.408777
 H     1.929563    -3.767671    -3.368307
 C     0.007992    -4.095537    -0.562124
 C    -0.890102    -5.084224     0.120821
 H    -0.300970    -5.912511     0.548042
 H    -1.451364    -4.616260     0.940793
 H    -1.608921    -5.524502    -0.586378
 C     0.588079    -4.395050    -1.801277
 H     0.341521    -5.339512    -2.294081
 C    -3.038490    -1.901641    -0.169477
 H    -3.458217    -1.773854     0.831935
 C    -1.665034    -1.115142    -1.982479
 H    -1.003433    -0.367451    -2.419778
 C    -3.344008    -3.050613    -0.889430
 H    -3.995904    -3.817346    -0.468212
 C    -1.950241    -2.266593    -2.709147
 H    -1.511572    -2.427987    -3.694428
 C    -2.784833    -3.231458    -2.153321
Cl    -3.094650    -4.698465    -3.023013
 C    -3.274247     1.733563     2.287381
 H    -2.342207     1.828760     2.850009
 C    -4.470596     0.946079     0.345289
 H    -4.477895     0.425087    -0.615875
 C    -4.457396     2.286887     2.775390
 H    -4.453366     2.816954     3.730791
 C    -5.664582     1.487414     0.826132
 C    -6.943831     1.352033     0.051998
 H    -7.396603     2.336303    -0.145726
 H    -6.779070     0.854700    -0.913983
 H    -7.686680     0.761425     0.611903
 C    -5.640369     2.160658     2.055477
 H    -6.564902     2.591962     2.450002
 C    -1.893859     2.099820    -1.950715
 H    -2.607849     1.381178    -2.358476
 C    -0.414797     2.837613    -0.190973
 H     0.046476     2.657434     0.786200
 C    -1.586149     3.254878    -2.667713
 H    -2.044829     3.423561    -3.645312
 C    -0.125246     4.016189    -0.882371
 C     0.769446     5.063898    -0.288994
 H     0.179842     5.929478     0.055198
 H     1.324764     4.673605     0.574814
 H     1.493850     5.434173    -1.029703
 C    -0.710219     4.200877    -2.141586
 H    -0.474733     5.101418    -2.715273
