  86
scf done:    -2527.579409
 C     0.651375    -3.519545     0.263594
 H     1.186027    -4.084320    -0.518027
 H     1.403119    -3.311932     1.041477
 C    -0.474490    -4.365155     0.841613
 H    -1.174396    -4.708821     0.062194
 H    -0.094376    -5.268484     1.356436
 H    -1.073361    -3.811113     1.585478
Rh    -0.214701    -1.724978    -0.441240
 C     1.059069    -0.148556     2.526479
 C     3.047010    -1.265295     0.732546
 C     1.757397     1.118164     0.017536
 C    -1.888783     0.473347    -2.665387
 C    -3.377056    -0.474411    -0.353310
 C    -1.534035     1.648185    -0.042051
 P    -1.691199     0.027440    -0.879409
 P     1.369493    -0.517288     0.748574
 C    -0.696565    -2.675031    -1.947521
 O    -0.837804    -3.198209    -2.967138
 H     0.226887     0.572375     2.528315
 C     0.699386    -1.401126     3.310765
 H     1.526723    -2.127183     3.314183
 H    -0.174067    -1.903420     2.867957
 H     1.921393     0.368146     2.976797
 H     0.461680    -1.155746     4.356979
 C     4.001191    -1.054421     1.737325
 H     3.753663    -0.466749     2.624197
 C     3.419904    -2.018230    -0.383007
 H     2.674090    -2.205410    -1.161298
 C     5.278522    -1.584556     1.632612
 H     6.024090    -1.431619     2.415188
 C     4.702459    -2.546610    -0.509432
 H     4.951795    -3.131348    -1.395094
 C     5.642588    -2.333813     0.505365
 O     6.903610    -2.808105     0.487083
 C     7.321941    -3.568743    -0.611149
 H     7.272701    -2.993511    -1.552622
 H     8.365956    -3.848573    -0.421137
 H     6.721621    -4.488399    -0.726889
 C     1.789830     1.207778    -1.383409
 H     1.529807     0.322462    -1.972926
 C     2.078963     2.252549     0.760036
 H     2.060444     2.225815     1.851090
 C     2.129899     2.391993    -2.016147
 H     2.157620     2.470165    -3.104854
 C     2.420363     3.453808     0.136351
 H     2.655098     4.322387     0.752231
 C     2.444086     3.529901    -1.258532
 O     2.742197     4.646841    -1.955623
 C     3.118058     5.797164    -1.255261
 H     4.017546     5.628136    -0.637292
 H     3.341383     6.566190    -2.005657
 H     2.307275     6.166008    -0.600916
 H    -1.927058    -0.498826    -3.181416
 C    -3.065309     1.343504    -3.072381
 H    -3.073056     2.308254    -2.543379
 H    -4.020766     0.841369    -2.862853
 H    -0.924473     0.920635    -2.961065
 H    -3.030346     1.555797    -4.152488
 C    -4.416647     0.453137    -0.162779
 H    -4.225674     1.519500    -0.302820
 C    -3.652903    -1.825376    -0.127833
 H    -2.847917    -2.556141    -0.249320
 C    -5.681639     0.039779     0.220801
 H    -6.492801     0.754614     0.371766
 C    -4.921754    -2.256581     0.258929
 H    -5.092063    -3.320081     0.427300
 C    -5.947828    -1.322134     0.432181
 O    -7.204081    -1.630789     0.804162
 C    -7.529514    -2.973436     1.034389
 H    -6.930691    -3.406157     1.855047
 H    -8.589240    -2.996115     1.318275
 H    -7.388709    -3.590722     0.129754
 C    -1.788191     1.724430     1.337725
 H    -2.157072     0.841056     1.867221
 C    -1.082126     2.800416    -0.686179
 H    -0.854935     2.783883    -1.752850
 C    -1.590708     2.901787     2.041326
 H    -1.788584     2.964623     3.113153
 C    -0.884133     3.994442     0.006609
 H    -0.518709     4.864896    -0.538061
 C    -1.130229     4.049696     1.380457
 O    -0.953628     5.148348     2.143600
 C    -0.517056     6.327324     1.531354
 H    -1.224078     6.677347     0.758415
 H    -0.448384     7.087255     2.320098
 H     0.478164     6.204518     1.067389
