  90
scf done:    -2729.926465
 C    -1.163943     1.233974    -3.214849
 H    -1.160814     0.795657    -4.225021
 H    -2.219923     1.307349    -2.917374
 C    -0.526980     2.615632    -3.240381
 H     0.531156     2.582950    -3.548518
 H    -1.044698     3.295498    -3.944155
 H    -0.563081     3.108988    -2.252984
Rh     0.012871     0.189449    -1.818319
 C    -1.745141     1.572626     0.940755
 C    -3.457730     0.217798    -0.934236
 C    -1.842295    -1.348518     0.676710
 C     1.714509    -1.693803     0.820246
 C     3.426567    -0.261510    -0.964122
 C     1.888916     1.222763     0.843800
 P     1.719604    -0.224260    -0.272918
 P    -1.736962     0.209533    -0.282811
 C     0.790513    -0.673981    -3.249983
 O     1.141968    -1.361819    -4.106036
 C    -1.221689     1.440106     2.231924
 H    -0.910333     0.459757     2.593829
 C    -2.117142     2.851117     0.497603
 H    -2.509614     2.982697    -0.514421
 C    -1.081602     2.543640     3.068696
 H    -0.661817     2.449229     4.071296
 C    -1.990100     3.962276     1.324907
 H    -2.277952     4.960579     0.990511
 C    -1.468761     3.790990     2.601636
 F    -1.318487     4.857641     3.391178
 C    -3.709062    -0.534278    -2.088893
 H    -2.869473    -1.004510    -2.609842
 C    -4.533968     0.816724    -0.276166
 H    -4.368596     1.395314     0.635570
 C    -5.003789    -0.676534    -2.571183
 H    -5.177651    -1.268720    -3.474079
 C    -5.829607     0.677650    -0.771921
 H    -6.659312     1.156403    -0.244213
 C    -6.088922    -0.067679    -1.925588
 C    -7.479440    -0.201482    -2.472961
 H    -8.233619     0.137085    -1.748741
 H    -7.602159     0.400804    -3.388280
 H    -7.705598    -1.244762    -2.741084
 C    -2.564779    -1.475841     1.866690
 H    -3.051286    -0.604649     2.312160
 C    -1.287668    -2.496571     0.099008
 H    -0.732115    -2.394666    -0.838527
 C    -2.680133    -2.716334     2.489914
 H    -3.233894    -2.796068     3.429620
 C    -1.433972    -3.735137     0.710369
 H    -0.991229    -4.618959     0.243532
 C    -2.113491    -3.865744     1.927837
 C    -2.201011    -5.198309     2.610572
 H    -2.580433    -5.973318     1.926791
 H    -1.203978    -5.524450     2.947853
 H    -2.861942    -5.163331     3.487807
 C     2.128047    -2.923431     0.287662
 H     2.542286    -2.965905    -0.723188
 C     1.163981    -1.675110     2.107126
 H     0.817205    -0.734665     2.536110
 C     2.018531    -4.097781     1.025474
 H     2.339351    -5.059470     0.621119
 C     1.043420    -2.841800     2.855786
 H     0.605296    -2.835611     3.854924
 C     1.474353    -4.038812     2.302454
 F     1.344565    -5.165832     3.007281
 C     3.677348     0.397168    -2.170892
 H     2.844223     0.849322    -2.715604
 C     4.507880    -0.817327    -0.269303
 H     4.344354    -1.324164     0.684674
 C     4.971273     0.484458    -2.677094
 H     5.142048     1.005285    -3.623287
 C     5.797120    -0.734152    -0.784541
 H     6.626478    -1.179735    -0.227784
 C     6.053690    -0.085838    -1.999384
 C     7.441275    -0.029840    -2.566879
 H     8.201269     0.004035    -1.772651
 H     7.649594    -0.922357    -3.180588
 H     7.577796     0.849438    -3.212646
 C     2.566701     1.206605     2.066000
 H     3.009563     0.279954     2.438398
 C     1.382528     2.441835     0.376000
 H     0.866391     2.469246    -0.589097
 C     2.684735     2.371258     2.821985
 H     3.203228     2.335918     3.784265
 C     1.525588     3.604137     1.122076
 H     1.115940     4.541977     0.737721
 C     2.160672     3.587192     2.370250
 C     2.245827     4.835742     3.196866
 H     2.683353     5.666439     2.621689
 H     1.240742     5.156299     3.514766
 H     2.856486     4.685809     4.098050
