  98
scf done:    -2434.938205
 C    -0.895842    -3.478549    -0.903631
 H    -1.239596    -4.267490    -0.214271
 H    -1.790552    -3.157174    -1.457276
 C     0.122122    -4.047903    -1.884233
 H     0.995250    -4.480885    -1.370394
 H    -0.310631    -4.845902    -2.518062
 H     0.512503    -3.277138    -2.571857
Rh     0.051221    -1.853175     0.064051
 C    -1.095996     0.860171    -1.840971
 C    -3.190579    -1.034019    -1.316150
 C    -2.252414     0.643153     0.816337
 C     1.021130     1.179829     1.726761
 C     3.083514    -0.787933     1.488177
 C     2.240658     0.668513    -0.856273
 P     1.563211    -0.184437     0.628152
 P    -1.630587    -0.370410    -0.587421
 C     0.787657    -3.108967     1.191776
 O     1.136703    -3.843538     2.010686
 C    -0.991687     2.235039    -1.597335
 H    -1.354720     2.659805    -0.660636
 C    -0.598650     0.358702    -3.054534
 H    -0.639243    -0.716938    -3.251144
 C    -0.387124     3.085530    -2.523483
 H    -0.286408     4.156230    -2.335787
 C    -0.006714     1.195384    -3.993670
 H     0.393608     0.811325    -4.933660
 C     0.105138     2.552279    -3.706633
 F     0.714788     3.352649    -4.578268
 H    -2.909327    -1.593067    -2.223843
 H    -3.813769    -0.187651    -1.643113
 C    -3.918721    -1.945951    -0.334427
 H    -3.176616    -2.574793     0.185869
 H    -4.402336    -1.335699     0.449316
 C    -4.972890    -2.850899    -0.974383
 H    -4.456764    -3.455604    -1.743936
 C    -5.546073    -3.808850     0.062666
 H    -4.752807    -4.410696     0.532220
 H    -6.274313    -4.500838    -0.388005
 H    -6.064721    -3.255665     0.863752
 C    -6.078387    -2.056009    -1.660141
 H    -6.828012    -2.724501    -2.111233
 H    -5.688397    -1.410098    -2.461379
 H    -6.602832    -1.410518    -0.934888
 H    -1.398657     1.254554     1.142473
 H    -2.413620    -0.076064     1.633762
 C    -3.482978     1.513096     0.577148
 H    -3.456401     1.946783    -0.436553
 H    -4.395251     0.892272     0.607477
 C    -3.622860     2.656526     1.587042
 H    -2.698553     3.263007     1.521907
 C    -4.799264     3.553521     1.223007
 H    -4.700439     3.955720     0.202418
 H    -4.883105     4.405574     1.915141
 H    -5.748157     2.993503     1.269293
 C    -3.736770     2.152825     3.020917
 H    -3.789371     2.992323     3.730825
 H    -2.872768     1.535837     3.307665
 H    -4.646407     1.542412     3.150859
 C     0.888062     2.510665     1.311405
 H     1.228393     2.817319     0.321395
 C     0.556417     0.830363     3.004711
 H     0.616205    -0.210624     3.334822
 C     0.286456     3.463529     2.133734
 H     0.163803     4.499917     1.813383
 C    -0.029705     1.772233     3.841928
 H    -0.403938     1.506227     4.832132
 C    -0.171920     3.079072     3.386133
 F    -0.778469     3.975302     4.161721
 H     2.739229    -1.248691     2.429241
 H     3.710830     0.074821     1.760702
 C     3.844968    -1.811210     0.653757
 H     3.120186    -2.471484     0.146166
 H     4.399749    -1.296333    -0.151473
 C     4.817986    -2.680886     1.451864
 H     4.223249    -3.200969     2.226006
 C     5.437786    -3.741736     0.550637
 H     4.663902    -4.363025     0.073844
 H     6.105103    -4.409772     1.116829
 H     6.035159    -3.276356    -0.251496
 C     5.892286    -1.855978     2.151227
 H     6.583699    -2.500806     2.715516
 H     5.462636    -1.133087     2.861248
 H     6.490588    -1.289600     1.417062
 H     1.398622     1.232106    -1.285830
 H     2.437610    -0.138930    -1.578881
 C     3.459289     1.568200    -0.676893
 H     3.398258     2.110894     0.281384
 H     4.373829     0.953249    -0.610210
 C     3.624462     2.593385    -1.803308
 H     2.700695     3.204339    -1.823951
 C     4.795907     3.523976    -1.515764
 H     4.679315     4.032340    -0.545705
 H     4.894285     4.297574    -2.292904
 H     5.744174     2.961870    -1.484815
 C     3.764571     1.935515    -3.171044
 H     3.848782     2.691950    -3.966091
 H     2.897543     1.303273    -3.412472
 H     4.666689     1.301823    -3.210804
