 104
scf done:    -2315.125547
 C    -0.860999    -3.473476    -0.931825
 H    -1.165538    -4.297212    -0.265288
 H    -1.773667    -3.170263    -1.465724
 C     0.169030    -3.969983    -1.939074
 H     1.068062    -4.373728    -1.446326
 H    -0.233341    -4.771822    -2.588245
 H     0.513449    -3.164559    -2.611566
Rh     0.052040    -1.849226     0.069011
 C    -1.083893     0.865805    -1.854702
 C    -3.168422    -1.041981    -1.349176
 C    -2.259781     0.636746     0.796987
 C     1.002326     1.211116     1.720350
 C     3.051053    -0.772568     1.544122
 C     2.251783     0.648340    -0.840310
 P     1.547439    -0.172665     0.650841
 P    -1.619362    -0.366599    -0.606373
 C     0.759446    -3.099614     1.219049
 O     1.085767    -3.831090     2.050802
 C    -0.982518     2.238796    -1.611070
 H    -1.336866     2.660777    -0.669570
 C    -0.591881     0.373922    -3.074289
 H    -0.628440    -0.701110    -3.276417
 C    -0.394520     3.088069    -2.549840
 H    -0.317353     4.156812    -2.330062
 C    -0.018831     1.225235    -4.010112
 H     0.361916     0.813740    -4.949333
 C     0.102275     2.600854    -3.761235
 C     0.765638     3.504633    -4.757629
 H     1.839859     3.273308    -4.842198
 H     0.329341     3.384135    -5.761209
 H     0.671901     4.561019    -4.469919
 H    -2.873091    -1.597559    -2.254479
 H    -3.794933    -0.200405    -1.682277
 C    -3.898728    -1.961301    -0.376151
 H    -3.155871    -2.584082     0.150469
 H    -4.394985    -1.356932     0.404289
 C    -4.939011    -2.874371    -1.027051
 H    -4.410797    -3.472979    -1.793172
 C    -5.513059    -3.839529     0.002830
 H    -4.718553    -4.435130     0.478200
 H    -6.231336    -4.537045    -0.455434
 H    -6.043396    -3.292444     0.800512
 C    -6.045386    -2.088098    -1.721306
 H    -6.784943    -2.762120    -2.180905
 H    -5.653363    -1.436706    -2.517066
 H    -6.582126    -1.448890    -0.999413
 H    -1.417048     1.259638     1.131145
 H    -2.417118    -0.087863     1.610508
 C    -3.501637     1.486589     0.552642
 H    -3.441522     1.978144    -0.432608
 H    -4.396690     0.841935     0.507367
 C    -3.724512     2.563930     1.618505
 H    -2.825754     3.210603     1.622968
 C    -4.926932     3.427986     1.258707
 H    -4.813276     3.882651     0.262031
 H    -5.070106     4.241950     1.986411
 H    -5.851897     2.827473     1.246220
 C    -3.870639     1.969570     3.014626
 H    -4.070868     2.755266     3.760106
 H    -2.961594     1.436131     3.329483
 H    -4.712496     1.257502     3.052116
 C     0.536838     0.894332     3.006464
 H     0.587719    -0.140017     3.359066
 C     0.878824     2.533973     1.283797
 H     1.215037     2.820138     0.286077
 C    -0.030398     1.865745     3.820535
 H    -0.389223     1.589907     4.816323
 C     0.294785     3.502950     2.100951
 H     0.200284     4.528230     1.731700
 C    -0.174535     3.189756     3.378903
 C    -0.832021     4.219957     4.248288
 H    -0.771848     5.222724     3.802912
 H    -1.897500     3.982555     4.400163
 H    -0.365497     4.260617     5.244756
 H     2.686487    -1.217055     2.485301
 H     3.677833     0.090761     1.816309
 C     3.822127    -1.812736     0.740344
 H     3.102890    -2.474585     0.227137
 H     4.397443    -1.314061    -0.060731
 C     4.771731    -2.678265     1.570418
 H     4.157051    -3.183088     2.339028
 C     5.402205    -3.756259     0.697377
 H     4.633514    -4.378432     0.213405
 H     6.052762    -4.421178     1.286427
 H     6.019349    -3.306504    -0.098747
 C     5.837496    -1.851611     2.280767
 H     6.512095    -2.493261     2.868688
 H     5.398103    -1.115441     2.970862
 H     6.455297    -1.300002     1.551440
 H     1.424706     1.218947    -1.290763
 H     2.446386    -0.174181    -1.546539
 C     3.483451     1.527130    -0.656915
 H     3.386620     2.134108     0.258644
 H     4.375449     0.895269    -0.501148
 C     3.742893     2.468493    -1.837079
 H     2.848318     3.112733    -1.942699
 C     4.939761     3.366726    -1.550037
 H     4.802340     3.935393    -0.616958
 H     5.106005     4.089254    -2.364210
 H     5.860875     2.769832    -1.442625
 C     3.922027     1.712498    -3.148760
 H     4.145193     2.404083    -3.976420
 H     3.018914     1.146480    -3.421848
 H     4.760835     0.999224    -3.079709
