  94
scf done:    -3030.581002
 C    -1.137284     0.677021    -3.400017
 H    -0.755840     0.394455    -4.393433
 H    -2.169172     0.299230    -3.346354
 C    -1.110921     2.189422    -3.251705
 H    -1.615196     2.696885    -4.095836
 H    -1.628566     2.523437    -2.337168
 H    -0.081625     2.587455    -3.217198
Rh     0.090498    -0.047969    -1.857149
 C    -1.428616     1.391961     1.101924
 C    -3.325883     0.760311    -0.921481
 C    -2.089194    -1.379571     0.417119
 C     1.567503    -1.538138     1.072479
 C     3.486264    -0.655309    -0.843021
 C     2.091184     1.310058     0.572081
 P     1.783312    -0.295924    -0.256800
 P    -1.668915     0.241919    -0.319074
 C     0.767558    -1.203220    -3.108220
 O     1.040051    -2.058229    -3.834794
 C    -1.662579     1.081056     2.445992
 H    -2.041302     0.095596     2.721206
 C    -0.929189     2.665156     0.790626
 H    -0.712679     2.918736    -0.250002
 C    -1.387053     2.003035     3.455096
 H    -1.544633     1.761757     4.507924
 C    -0.678218     3.607337     1.781791
 H    -0.278885     4.594431     1.544899
 C    -0.896981     3.253442     3.106233
 F    -0.605352     4.131943     4.070072
 C    -3.909191     2.003545    -0.643385
 H    -3.398567     2.715866     0.007806
 C    -4.024721    -0.126198    -1.747474
 H    -3.594495    -1.106025    -1.972482
 C    -5.144372     2.347288    -1.174754
 H    -5.604936     3.312930    -0.958070
 C    -5.266059     0.204248    -2.284675
 H    -5.777877    -0.516856    -2.922185
 C    -5.833721     1.453134    -2.003339
 O    -7.024738     1.870698    -2.474734
 C    -7.750941     1.023460    -3.319885
 H    -8.023652     0.077473    -2.819215
 H    -8.670230     1.559162    -3.588652
 H    -7.193095     0.787080    -4.243172
 C    -1.344383    -2.512455     0.059750
 H    -0.531880    -2.391634    -0.662157
 C    -3.168751    -1.544072     1.290874
 H    -3.813634    -0.693570     1.527483
 C    -1.631694    -3.754940     0.599367
 H    -1.050924    -4.638422     0.329770
 C    -3.457814    -2.784293     1.857168
 H    -4.301746    -2.874813     2.541458
 C    -2.675341    -3.898515     1.523065
 O    -2.864002    -5.133507     2.021192
 C    -3.870198    -5.335729     2.973224
 H    -4.873072    -5.117479     2.565569
 H    -3.826434    -6.394709     3.257097
 H    -3.710598    -4.718046     3.874593
 C     2.037366    -2.845179     0.878724
 H     2.655131    -3.077337     0.007783
 C     0.759567    -1.280476     2.187429
 H     0.352527    -0.281924     2.344015
 C     1.721307    -3.861219     1.775892
 H     2.079255    -4.882105     1.630883
 C     0.440073    -2.284837     3.095205
 H    -0.195786    -2.089802     3.960528
 C     0.921731    -3.567851     2.874076
 F     0.605304    -4.538802     3.728436
 C     4.518919    -0.932686     0.070494
 H     4.296640    -1.004173     1.138404
 C     3.812876    -0.545070    -2.192799
 H     3.029461    -0.304098    -2.914060
 C     5.819733    -1.121069    -0.360331
 H     6.626090    -1.343255     0.341151
 C     5.121815    -0.726116    -2.642836
 H     5.333548    -0.636049    -3.708288
 C     6.134106    -1.022230    -1.726058
 O     7.423752    -1.222951    -2.052968
 C     7.800733    -1.134585    -3.399120
 H     7.607055    -0.129807    -3.814043
 H     8.879330    -1.332550    -3.437377
 H     7.277770    -1.881983    -4.021283
 C     2.103925     2.433663    -0.272814
 H     1.904912     2.299943    -1.341638
 C     2.358409     1.500717     1.926643
 H     2.395839     0.647481     2.606368
 C     2.343287     3.701940     0.225848
 H     2.342816     4.579268    -0.423850
 C     2.570334     2.777746     2.448412
 H     2.740918     2.891894     3.518923
 C     2.546424     3.889343     1.601222
 O     2.680819     5.163585     2.015617
 C     2.753251     5.417595     3.393585
 H     3.654397     4.969311     3.847346
 H     2.806366     6.507488     3.508729
 H     1.858211     5.042063     3.918854
