 100
scf done:    -2910.911326
 C    -1.207068     2.836513    -1.756906
 H    -0.918407     3.183910    -2.759509
 H    -2.238964     2.461723    -1.859829
 C    -1.151134     3.969073    -0.743929
 H    -1.821227     4.804944    -1.020527
 H    -1.463026     3.636410     0.261424
 H    -0.134250     4.385273    -0.653882
Rh     0.176252     1.423662    -0.982006
 C    -2.974076     0.980977     0.605888
 O    -2.583221    -0.130481    -1.752124
 O    -1.376883    -1.171956     0.293705
 C     2.249277    -1.444437    -0.446376
 O     3.140074     0.885353     0.356496
 O     1.157908    -0.144129     1.696495
 P     1.651257     0.163032     0.142899
 P    -1.664746     0.294840    -0.435239
 C     1.364634     1.904998    -2.358124
 O     2.013889     2.031859    -3.296152
 C    -2.625470     1.257903     1.934981
 H    -1.618958     1.016399     2.291480
 C    -4.248998     1.312272     0.147041
 H    -4.518748     1.103333    -0.889746
 C    -3.551498     1.836253     2.792458
 H    -3.271489     2.041735     3.829387
 C    -5.167782     1.900154     1.014217
 H    -6.164684     2.157831     0.646337
 C    -4.839800     2.167439     2.347014
 C    -5.832831     2.787057     3.285218
 H    -6.751664     3.085891     2.762141
 H    -6.113941     2.081071     4.083413
 H    -5.414342     3.679156     3.776518
 C    -1.983765    -0.381339    -2.965077
 C    -0.817307    -1.139623    -3.048221
 H    -0.378839    -1.562331    -2.142500
 C    -2.574671     0.151115    -4.106237
 H    -3.483117     0.747933    -4.010461
 C    -0.196701    -1.348990    -4.282811
 C     1.110313    -2.082330    -4.347885
 H     1.949210    -1.376160    -4.229438
 H     1.200978    -2.819487    -3.537278
 H     1.242124    -2.596270    -5.311089
 C    -1.974681    -0.080956    -5.341662
 H    -2.428840     0.330501    -6.246273
 C    -0.793919    -0.815673    -5.430681
 H    -0.324781    -0.974641    -6.405067
 C    -2.288286    -2.041040     0.834960
 C    -3.563732    -2.226360     0.306455
 H    -3.866936    -1.662567    -0.576130
 C    -1.864114    -2.775280     1.945091
 H    -0.860920    -2.612655     2.342273
 C    -4.447074    -3.137703     0.898143
 C    -5.827378    -3.306132     0.332298
 H    -6.403955    -2.371187     0.420027
 H    -5.790794    -3.562984    -0.737910
 H    -6.384405    -4.097037     0.853438
 C    -2.735985    -3.690735     2.523315
 H    -2.409465    -4.269131     3.391039
 C    -4.020678    -3.868831     2.010318
 H    -4.700549    -4.585951     2.477163
 C     1.479204    -2.593452    -0.230374
 H     0.564102    -2.531357     0.359863
 C     3.410363    -1.536000    -1.220608
 H     4.018762    -0.645721    -1.390822
 C     1.875202    -3.810870    -0.772705
 H     1.266597    -4.700111    -0.587411
 C     3.795271    -2.759873    -1.760044
 H     4.708000    -2.818209    -2.359424
 C     3.035889    -3.916919    -1.550004
 C     3.430239    -5.224503    -2.169780
 H     2.920839    -5.364433    -3.138184
 H     4.512016    -5.272997    -2.359092
 H     3.151886    -6.074678    -1.530319
 C     3.209061     2.251803     0.470524
 C     2.307855     2.955489     1.267412
 H     1.552684     2.408055     1.836635
 C     4.201330     2.918158    -0.246110
 H     4.887370     2.343244    -0.870141
 C     2.370766     4.352091     1.345184
 C     1.375592     5.097941     2.185052
 H     0.353444     4.949650     1.801917
 H     1.387390     4.741493     3.226963
 H     1.581702     6.177104     2.191924
 C     4.274583     4.304344    -0.159694
 H     5.044879     4.838991    -0.720463
 C     3.365280     5.017195     0.622458
 H     3.428549     6.107020     0.672698
 C     1.770122    -0.879343     2.675592
 C     3.108403    -1.263159     2.628791
 H     3.732088    -0.959376     1.788102
 C     0.969879    -1.225702     3.767993
 H    -0.070004    -0.895166     3.787848
 C     3.659132    -2.029098     3.664145
 C     5.099809    -2.444688     3.590324
 H     5.764212    -1.566497     3.561147
 H     5.387994    -3.058757     4.454696
 H     5.295882    -3.027612     2.676605
 C     1.518226    -1.979765     4.798535
 H     0.896616    -2.255093     5.654009
 C     2.851493    -2.387112     4.746664
 H     3.271970    -2.984464     5.559395
