  94
scf done:    -2084.258639
 C     1.203172    -2.977903     0.173205
 H     1.040927    -3.819255    -0.513990
 H     2.287390    -2.877635     0.301661
 C     0.481084    -3.183760     1.500200
 H    -0.143730    -4.090525     1.512706
 H     1.168317    -3.231507     2.361540
 H    -0.220270    -2.343277     1.730504
Rh     0.138243    -1.256697    -0.356552
 C     1.591324     1.006557     2.137202
 C     3.490993    -0.639710     0.747733
 C     2.231835     1.572909    -0.645926
 C    -1.781924     1.140945    -2.121654
 C    -3.246903    -0.898420    -0.582822
 C    -1.941970     1.450480     0.811045
 P    -1.715638     0.178162    -0.533462
 P     1.811013     0.149330     0.503425
 C    -0.270146    -2.004919    -1.978557
 O    -0.398536    -2.349425    -3.076981
 H     0.665901     1.594424     2.051247
 C     1.472834     0.035598     3.301573
 H     2.410533    -0.513363     3.477633
 H     0.689586    -0.714193     3.115183
 H     2.405138     1.730635     2.305980
 H     1.219434     0.564126     4.233592
 H     3.261515    -1.521677     1.374159
 C     4.541679     0.188544     1.489017
 H     4.160173     0.544046     2.457733
 H     4.787439     1.091257     0.900487
 C     5.815921    -0.623222     1.720836
 H     6.570971    -0.000383     2.228208
 H     5.584837    -1.453893     2.412213
 C     6.379122    -1.195072     0.425216
 H     7.263954    -1.818075     0.634441
 H     6.728923    -0.364402    -0.214786
 C     5.324040    -1.993225    -0.331691
 H     5.052491    -2.893590     0.248655
 H     5.727646    -2.353427    -1.291845
 C     4.072449    -1.156621    -0.570774
 H     4.345011    -0.294176    -1.204050
 H     3.309898    -1.726395    -1.123654
 H     3.302200     1.786401    -0.465941
 C     1.460448     2.863583    -0.362557
 H     1.609531     3.193551     0.676228
 H     0.380294     2.670472    -0.478595
 C     1.867280     3.984586    -1.315307
 H     1.279015     4.891571    -1.098636
 H     2.923924     4.248586    -1.127552
 C     1.705704     3.575245    -2.773690
 H     2.042099     4.385703    -3.440586
 H     0.632903     3.421067    -2.991046
 C     2.463900     2.286558    -3.065322
 H     3.549190     2.474365    -2.968823
 H     2.297372     1.968098    -4.107143
 C     2.056347     1.168409    -2.112487
 H     0.999875     0.898647    -2.268847
 H     2.618756     0.251844    -2.334826
 H    -1.223186     0.511480    -2.831643
 C    -3.101116     1.558044    -2.755024
 H    -3.692735     2.226922    -2.114991
 H    -3.725638     0.687169    -3.001775
 H    -1.138732     2.019240    -1.948626
 H    -2.907210     2.091627    -3.698961
 H    -3.219651    -1.255692    -1.631710
 C    -4.608641    -0.241920    -0.339484
 H    -4.743861     0.651266    -0.962874
 H    -4.662916     0.097703     0.708847
 C    -5.747217    -1.227972    -0.592648
 H    -6.716357    -0.737792    -0.403599
 H    -5.745845    -1.512084    -1.660748
 C    -5.605427    -2.480758     0.262807
 H    -6.412037    -3.196579     0.035299
 H    -5.725114    -2.205585     1.326740
 C    -4.240312    -3.128687     0.064697
 H    -4.165261    -3.514838    -0.967995
 H    -4.125695    -4.000207     0.729487
 C    -3.103788    -2.140991     0.304151
 H    -3.099179    -1.838181     1.365737
 H    -2.129670    -2.616763     0.109734
 H    -0.937936     1.910216     0.829942
 C    -2.135477     0.774496     2.170017
 H    -1.380373    -0.018550     2.299790
 H    -3.118501     0.274801     2.196189
 C    -2.064964     1.781489     3.313017
 H    -2.250936     1.275039     4.273903
 H    -1.041245     2.192966     3.374084
 C    -3.052037     2.924797     3.108108
 H    -2.963483     3.661130     3.923196
 H    -4.082424     2.527986     3.158920
 C    -2.842449     3.598587     1.757002
 H    -1.846273     4.077586     1.741458
 H    -3.576930     4.407165     1.610558
 C    -2.931828     2.598137     0.605909
 H    -3.960935     2.211908     0.540871
 H    -2.725975     3.112739    -0.345238
