 110
scf done:    -3289.963179
 C    -1.286957     1.959288    -2.903757
 H    -1.536514     1.546051    -3.894435
 H    -2.238215     2.078627    -2.364712
 C    -0.597526     3.307456    -3.049691
 H     0.307748     3.246752    -3.674964
 H    -1.262500     4.064063    -3.511409
 H    -0.283670     3.719645    -2.074432
Rh    -0.010629     0.768244    -1.745589
 C    -1.937866     0.555988     1.279014
 C    -3.486031     0.175250    -1.220909
 C    -1.815682    -1.862500    -0.454684
 C     1.928464    -1.320858     0.567732
 C     3.426259     0.638939    -1.066074
 C     1.838162     1.636333     0.962808
 P     1.776302     0.288874    -0.284552
 P    -1.805407    -0.024361    -0.454673
 C     0.954244     0.413163    -3.266607
 O     1.461718    -0.032490    -4.205125
 C    -1.719766    -0.211972     2.430538
 O    -1.352199    -1.491946     2.251725
 C    -1.550355    -2.428069     3.265517
 H    -1.352767    -3.411542     2.818838
 H    -0.857512    -2.285172     4.113108
 H    -2.586329    -2.397724     3.646911
 C    -2.229602     1.921260     1.434707
 O    -2.360855     2.599222     0.275185
 C    -2.850910     3.908051     0.274621
 H    -2.923334     4.209972    -0.777678
 H    -2.172487     4.602978     0.799286
 H    -3.850014     3.963300     0.740554
 C    -2.376659     2.502352     2.694584
 H    -2.611568     3.560763     2.802100
 C    -1.874664     0.356288     3.703469
 H    -1.723720    -0.248351     4.597676
 C    -2.203509     1.701192     3.821026
 H    -2.314130     2.141869     4.814880
 C    -3.519247    -0.215891    -2.562052
 H    -2.579270    -0.531271    -3.025027
 C    -4.691808     0.593687    -0.622830
 O    -4.669239     0.939161     0.679364
 C    -5.823611     1.408711     1.302807
 H    -6.223610     2.314911     0.812490
 H    -5.535196     1.658465     2.332737
 H    -6.623453     0.646007     1.328645
 C    -4.691656    -0.201044    -3.312624
 H    -4.676031    -0.513755    -4.358461
 C    -5.871902     0.624743    -1.378615
 H    -6.805518     0.951875    -0.920355
 C    -5.870554     0.228334    -2.713990
 H    -6.803201     0.258935    -3.282923
 C    -0.854971    -2.533172    -1.203322
 H    -0.073684    -1.934484    -1.680725
 C    -2.860573    -2.604333     0.135285
 O    -3.767043    -1.901606     0.838868
 C    -4.932534    -2.523489     1.287942
 H    -5.502052    -2.973336     0.456022
 H    -5.540299    -1.738513     1.755863
 H    -4.722726    -3.305074     2.040435
 C    -0.899496    -3.921023    -1.359195
 H    -0.136535    -4.429789    -1.951368
 C    -2.911919    -3.990438    -0.020281
 H    -3.717867    -4.569463     0.431933
 C    -1.925739    -4.642734    -0.765395
 H    -1.977374    -5.728223    -0.882920
 C     1.741147    -1.546060     1.937366
 O     1.387434    -0.487577     2.687998
 C     1.628941    -0.489415     4.061199
 H     1.439203     0.534993     4.408481
 H     0.955240    -1.172523     4.607896
 H     2.673294    -0.767759     4.287722
 C     2.218172    -2.420021    -0.258407
 O     2.343063    -2.116633    -1.564877
 C     2.819615    -3.064948    -2.474756
 H     2.871585    -2.557029    -3.445669
 H     2.141542    -3.931638    -2.559030
 H     3.824501    -3.423689    -2.191586
 C     2.379670    -3.704379     0.263079
 H     2.609960    -4.548700    -0.385852
 C     1.914142    -2.828934     2.476034
 H     1.786750    -2.999078     3.545107
 C     2.231188    -3.889830     1.635565
 H     2.354819    -4.890120     2.057869
 C     3.434250     1.791848    -1.855978
 H     2.493136     2.336019    -1.981730
 C     4.640457    -0.062692    -0.909995
 O     4.648217    -1.155122    -0.122238
 C     5.795970    -1.938567    -0.016893
 H     6.135360    -2.314562    -0.999109
 H     5.525683    -2.793277     0.617592
 H     6.633381    -1.391362     0.453864
 C     4.584564     2.253662    -2.490742
 H     4.546744     3.158504    -3.100325
 C     5.796088     0.388309    -1.562134
 H     6.732445    -0.159365    -1.453097
 C     5.767731     1.539261    -2.346102
 H     6.682184     1.871898    -2.843577
 C     0.873454     2.636267     0.889241
 H     0.062213     2.526177     0.162415
 C     2.904285     1.787542     1.873206
 O     3.810828     0.794983     1.891950
 C     4.985653     0.939704     2.631031
 H     5.555661     1.833204     2.321840
 H     5.587024     0.043555     2.432349
 H     4.787739     1.001021     3.716421
 C     0.934158     3.765786     1.709066
 H     0.165247     4.537018     1.636352
 C     2.972964     2.914766     2.693989
 H     3.795348     3.037560     3.399641
 C     1.982985     3.897571     2.608941
 H     2.048082     4.776712     3.255046
