  60
scf done:    -1987.363017
 C     0.865745    -3.217567    -1.254304
 H     0.314597    -4.167459    -1.327176
 H     1.043921    -2.871620    -2.282390
 C     2.183165    -3.439397    -0.526306
 H     2.752159    -4.286531    -0.954587
 H     2.837599    -2.555592    -0.594607
 H     2.041439    -3.668054     0.544277
Rh    -0.181445    -1.761894    -0.125552
 C     2.090944     1.050974    -0.271644
 O     2.037718    -0.652188    -2.347256
 O     0.085745     0.986841    -1.928915
 C    -2.392628     0.907355     0.470915
 O    -2.300659    -0.909199     2.328691
 O    -0.348983     0.795000     2.103462
 P    -1.249667    -0.271625     1.234215
 P     1.024265    -0.123892    -1.170651
 C    -1.577200    -2.987918    -0.110326
 O    -2.494469    -3.669876    -0.236582
 C     1.751961     2.392538    -0.091169
 H     0.845968     2.782605    -0.556802
 C     3.257999     0.544224     0.313549
 H     3.513394    -0.511902     0.178300
 C     2.576676     3.209715     0.681100
 H     2.312426     4.259114     0.833835
 C     4.100139     1.355453     1.077283
 C     5.364065     0.813642     1.679081
 H     5.380288    -0.285033     1.660590
 H     6.248521     1.168300     1.124750
 H     5.484673     1.140899     2.722836
 C     3.735149     2.697278     1.258968
 H     4.372052     3.348564     1.864373
 C     2.768263     0.250765    -3.149789
 H     2.115434     1.034813    -3.565690
 H     3.575776     0.733901    -2.575140
 H     3.208807    -0.328168    -3.972873
 C    -1.080095     0.581138    -2.626194
 H    -0.850184     0.435853    -3.693808
 H    -1.478288    -0.358166    -2.207497
 H    -1.831978     1.374008    -2.513832
 C    -3.574778     0.419467    -0.099803
 H    -3.836095    -0.636884    -0.000776
 C    -2.061295     2.255221     0.342223
 H    -1.141533     2.618039     0.805509
 C    -4.408723     1.289038    -0.792694
 H    -5.335607     0.917470    -1.236088
 C    -2.888512     3.137929    -0.363645
 C    -2.505436     4.583039    -0.501348
 H    -2.400998     5.061985     0.484960
 H    -1.536928     4.688767    -1.016089
 H    -3.254409     5.147925    -1.073662
 C    -4.064270     2.635271    -0.928767
 H    -4.723143     3.309183    -1.483442
 C    -1.945119    -2.042119     3.087389
 H    -1.224168    -2.681381     2.547093
 H    -1.503513    -1.741513     4.052277
 H    -2.856658    -2.624550     3.282872
 C     0.833461     0.357406     2.735810
 H     0.632121     0.099373     3.788755
 H     1.260074    -0.524675     2.225755
 H     1.568409     1.173395     2.697474
