  82
scf done:    -2226.902023
 C     1.159556    -1.289633    -2.517154
 H     0.783376    -1.186515    -3.546740
 H     2.211040    -0.971356    -2.540694
 C     1.055584    -2.742256    -2.078755
 H     0.011115    -3.095921    -2.058545
 H     1.609446    -3.418754    -2.757150
 H     1.480348    -2.903699    -1.072108
Rh    -0.014869    -0.254713    -1.117489
 C     1.546243    -1.105606     1.965469
 C     3.429400    -0.790883    -0.253499
 C     2.172523     1.576234     0.870355
 C    -1.457252     1.211937     1.930019
 C    -3.215440     1.017889    -0.398917
 C    -2.395463    -1.407488     1.052381
 P    -1.775115     0.207093     0.398023
 P     1.821505    -0.173854     0.377598
 C    -0.881126     0.471836    -2.565006
 O    -1.321772     1.047702    -3.460582
 H     1.486404    -2.162714     1.657814
 C     2.428286    -0.942311     3.189910
 H     2.498681     0.111069     3.498119
 H     3.448125    -1.319711     3.030568
 H     0.508661    -0.849981     2.224084
 H     1.998692    -1.506785     4.032440
 C     3.936228    -2.018104     0.194016
 H     3.399175    -2.584612     0.956632
 C     4.118911    -0.085387    -1.267008
 C     3.618877     1.209020    -1.839701
 H     3.851690     2.062302    -1.183367
 H     2.524653     1.193508    -1.969958
 H     4.082390     1.399223    -2.817617
 C     5.123461    -2.540978    -0.309255
 H     5.497519    -3.498367     0.060584
 C     5.313124    -0.629488    -1.755447
 H     5.848881    -0.087964    -2.539953
 C     5.821821    -1.836186    -1.285267
 H     6.755901    -2.231124    -1.691697
 C     1.202404     2.503465     0.459375
 H     0.371723     2.122950    -0.146142
 C     3.323150     2.043809     1.545656
 C     4.534241     1.214149     1.865731
 H     4.335341     0.142711     1.913197
 H     4.983612     1.532564     2.817876
 H     5.295116     1.352139     1.079406
 C     1.302156     3.856414     0.759351
 H     0.530209     4.550695     0.418856
 C     3.394132     3.411250     1.854688
 H     4.275729     3.776353     2.389326
 C     2.401627     4.310762     1.483195
 H     2.500557     5.368572     1.739329
 H    -1.180499     2.215394     1.573039
 C    -2.470627     1.293551     3.057070
 H    -2.739614     0.295927     3.433520
 H    -3.395245     1.804580     2.752923
 H    -0.510768     0.800672     2.310750
 H    -2.044232     1.862164     3.898432
 C    -3.489379     2.363348    -0.117641
 H    -2.890607     2.898546     0.621340
 C    -3.979120     0.346504    -1.381963
 C    -3.738896    -1.084040    -1.768098
 H    -4.167674    -1.783061    -1.032830
 H    -2.663454    -1.312858    -1.831092
 H    -4.194430    -1.299339    -2.744347
 C    -4.513954     3.046822    -0.765392
 H    -4.705554     4.095377    -0.526204
 C    -5.004913     1.055065    -2.018017
 H    -5.595499     0.541150    -2.781373
 C    -5.282475     2.385170    -1.718101
 H    -6.089669     2.906076    -2.238263
 C    -1.481352    -2.463746     0.909810
 H    -0.539521    -2.264357     0.388257
 C    -3.654136    -1.666242     1.640924
 C    -4.782327    -0.677046     1.724715
 H    -5.472923    -0.820386     0.876936
 H    -4.456846     0.364242     1.683144
 H    -5.361409    -0.828067     2.647474
 C    -1.754658    -3.744851     1.373506
 H    -1.020504    -4.542913     1.242135
 C    -3.906263    -2.964657     2.109906
 H    -4.875649    -3.169534     2.573247
 C    -2.977611    -3.992694     1.991160
 H    -3.217229    -4.990076     2.367939
