  68
scf done:    -1843.738340
 C     3.169587     1.773571    -0.744585
 H     4.206451     1.429510    -0.883272
 H     2.865714     2.170007    -1.725785
 C     3.145302     2.867668     0.314639
 H     3.769865     3.738983     0.037205
 H     2.128433     3.257335     0.500307
 H     3.520449     2.501199     1.283889
Rh     1.876179     0.248479    -0.050760
 C    -1.412327     1.656846    -0.163717
 C     0.340624     2.901219    -2.015633
 C    -0.545988     0.200045    -2.518727
 C    -0.605668    -2.247161    -0.024654
 C     1.467323    -2.665180     1.888501
 C    -0.538870    -0.657282     2.408093
 P     0.538312    -1.299594     1.050710
 P     0.079742     1.277443    -1.161829
 C     3.384540    -0.792280     0.034499
 O     4.300648    -1.488292    -0.056866
 C    -2.692515     1.174274    -0.446214
 H    -2.870417     0.552259    -1.324725
 C    -1.222072     2.450673     0.976894
 H    -0.213355     2.804941     1.215377
 C    -3.752172     1.473773     0.412384
 H    -4.751864     1.089211     0.193376
 C    -2.273832     2.770599     1.836729
 C    -2.052771     3.626011     3.049946
 H    -0.984129     3.820921     3.215235
 H    -2.558974     4.599348     2.945535
 H    -2.456656     3.147662     3.955598
 C    -3.546682     2.260286     1.540939
 H    -4.384660     2.484441     2.206981
 H     1.130963     2.724129    -2.761990
 C    -0.883809     3.536277    -2.651274
 H    -1.672151     3.728532    -1.907964
 H    -1.316979     2.901525    -3.439371
 H     0.790136     3.571562    -1.266255
 H    -0.620926     4.498375    -3.117911
 H    -1.342738     0.727369    -3.067981
 C     0.568025    -0.249650    -3.451692
 H     1.365927    -0.747165    -2.879384
 H     1.024770     0.596450    -3.988342
 H    -1.006494    -0.673638    -2.035191
 H     0.181034    -0.953563    -4.203977
 C    -0.043472    -3.040520    -1.035702
 H     1.042908    -3.133924    -1.115271
 C    -1.995441    -2.099972     0.020906
 H    -2.453214    -1.466974     0.783231
 C    -0.862289    -3.667959    -1.968300
 H    -0.416844    -4.277672    -2.758172
 C    -2.831866    -2.717478    -0.918006
 C    -4.321282    -2.548732    -0.833630
 H    -4.771121    -3.328644    -0.196756
 H    -4.589452    -1.576819    -0.393717
 H    -4.794000    -2.622994    -1.823682
 C    -2.246468    -3.502548    -1.915787
 H    -2.880929    -3.985768    -2.663894
 H     2.061992    -3.155082     1.101514
 C     2.377007    -2.167028     3.000432
 H     1.803909    -1.744302     3.839946
 H     3.057609    -1.382738     2.636680
 H     0.748341    -3.413902     2.257406
 H     2.991382    -2.988372     3.399297
 H    -1.286428    -0.010386     1.924841
 C    -1.194178    -1.675538     3.329392
 H    -0.453147    -2.218395     3.934049
 H    -1.774645    -2.425184     2.771260
 H     0.103587     0.034355     2.977127
 H    -1.882652    -1.175031     4.028136
