  64
scf done:    -1915.548889
 C    -0.352324    -2.686844    -1.359329
 H     0.023568    -3.717899    -1.446339
 H    -1.358061    -2.774017    -0.918604
 C    -0.447722    -2.036709    -2.732544
 H     0.536323    -1.967887    -3.225456
 H    -1.106685    -2.606841    -3.415066
 H    -0.866160    -1.019273    -2.666142
Rh     0.972466    -1.412240    -0.292179
 O    -2.098353    -0.248831    -0.563165
 C    -1.703777    -1.839435     1.720835
 C    -1.099363     0.961686     1.653077
 O     2.246992     1.732785     0.441387
 C     3.595483    -0.118088     1.763925
 C     3.844368     0.167380    -1.129431
 P     2.599333     0.088208     0.240401
 P    -0.955383    -0.554985     0.625803
 C     2.194985    -2.798492    -0.396870
 O     2.885398    -3.717503    -0.323847
 C    -3.430565    -0.026176    -0.386505
 C    -3.905046     1.268292    -0.160051
 H    -3.192324     2.093976    -0.116689
 C    -4.324927    -1.093220    -0.499825
 H    -3.931241    -2.090239    -0.707768
 C    -5.274068     1.482772    -0.012478
 H    -5.643293     2.495479     0.167215
 C    -5.691171    -0.867617    -0.351739
 H    -6.387969    -1.704894    -0.437999
 C    -6.170708     0.418132    -0.099684
 H    -7.242649     0.591539     0.017033
 H    -0.835849    -2.246202     2.266751
 C    -2.824382    -1.457251     2.677033
 H    -3.688711    -1.021800     2.156128
 H    -2.489480    -0.736263     3.437243
 H    -2.008923    -2.649876     1.040718
 H    -3.179501    -2.350732     3.213678
 H    -2.141916     1.032561     2.000691
 C    -0.127804     1.001534     2.821567
 H     0.910924     1.027468     2.466313
 H    -0.238148     0.131680     3.487982
 H    -0.930483     1.813661     0.979465
 H    -0.291076     1.905713     3.427201
 C     1.261508     2.370822    -0.237087
 C     0.651469     1.845659    -1.381809
 H     0.977174     0.886314    -1.794116
 C     0.838629     3.602477     0.275518
 H     1.335777     3.994599     1.164696
 C    -0.412175     2.528580    -1.970296
 H    -0.902143     2.092522    -2.843527
 C    -0.212397     4.281992    -0.331679
 H    -0.541275     5.239266     0.080153
 C    -0.853795     3.742935    -1.449698
 H    -1.687458     4.271701    -1.916453
 H     3.965620    -1.155958     1.701920
 C     4.718885     0.868746     2.033432
 H     4.348395     1.903672     2.012385
 H     5.526840     0.780125     1.292577
 H     2.859550    -0.120348     2.584099
 H     5.162417     0.685793     3.024093
 H     3.327195    -0.220706    -2.021137
 C     4.472499     1.520875    -1.425413
 H     5.001656     1.939112    -0.558936
 H     3.710956     2.253692    -1.729084
 H     4.604117    -0.593567    -0.877460
 H     5.194715     1.430206    -2.251289
