  80
scf done:    -4362.674457
 C    -1.852064    -3.244229     0.551453
 H    -2.380307    -3.387355     1.507482
 H    -2.632319    -3.003322    -0.189177
 C    -1.120371    -4.513349     0.143819
 H    -0.430188    -4.865060     0.927500
 H    -1.823460    -5.340300    -0.068191
 H    -0.519262    -4.374874    -0.772075
Rh    -0.446070    -1.674574     0.628778
 O    -2.155685     0.269968    -1.718949
 C    -3.774812    -0.683899     0.150100
 C    -1.954821     1.402117     0.678543
 O     1.604082     0.646298     1.817991
 C     2.945176    -1.129912     0.160583
 C     1.431647     1.005810    -0.891634
 P     1.360402    -0.256579     0.425384
 P    -2.025345    -0.237488    -0.122112
 C     0.210119    -2.446380     2.191739
 O     0.494476    -2.756404     3.262483
 C    -1.402984    -0.198275    -2.754142
 C    -0.819740    -1.468306    -2.765595
 H    -0.955042    -2.142144    -1.914156
 C    -1.263140     0.648164    -3.855492
 H    -1.720169     1.638429    -3.819254
 C    -0.075648    -1.869911    -3.874401
 H     0.380926    -2.862698    -3.875778
 C    -0.534063     0.228008    -4.963091
 H    -0.422864     0.902819    -5.815254
 C     0.071114    -1.029239    -4.976465
 H     0.647664    -1.355060    -5.844843
 C    -4.712453    -0.700660    -0.884085
 H    -4.406696    -0.429000    -1.895995
 C    -4.172122    -1.033869     1.445821
 H    -3.437526    -1.043608     2.256139
 C    -6.035022    -1.059056    -0.630517
 H    -6.773423    -1.077784    -1.433672
 C    -5.489752    -1.384252     1.711130
 H    -5.806444    -1.656745     2.718947
 C    -6.415675    -1.395828     0.666245
Cl    -8.057337    -1.839954     0.987918
 C    -1.381750     1.511149     1.948418
 H    -0.981013     0.619556     2.437759
 C    -2.435066     2.548138     0.035114
 H    -2.876320     2.464350    -0.959709
 C    -1.265677     2.753435     2.566923
 H    -0.800394     2.847395     3.549095
 C    -2.319469     3.793859     0.640928
 H    -2.678272     4.696376     0.143282
 C    -1.727427     3.888787     1.902837
Cl    -1.560280     5.441649     2.647714
 C     2.810935     1.134533     2.244598
 C     3.204343     2.433060     1.919042
 H     2.550281     3.056831     1.309425
 C     3.626213     0.324007     3.036322
 H     3.289757    -0.685497     3.280768
 C     4.431310     2.911055     2.377270
 H     4.739930     3.927792     2.122705
 C     4.849527     0.811276     3.487602
 H     5.488672     0.174010     4.103108
 C     5.258941     2.103059     3.155776
 H     6.219905     2.482276     3.510059
 C     2.974025    -2.527641     0.213847
 H     2.045869    -3.076132     0.397450
 C     4.140333    -0.436397    -0.087994
 H     4.141251     0.653813    -0.149265
 C     4.164483    -3.226798     0.033115
 H     4.185770    -4.316878     0.070041
 C     5.336743    -1.120878    -0.257356
 H     6.268242    -0.582810    -0.438531
 C     5.340962    -2.515856    -0.194549
Cl     6.827511    -3.371137    -0.409338
 C     0.869289     2.272666    -0.697506
 H     0.483436     2.554072     0.283554
 C     1.919961     0.665739    -2.160385
 H     2.353677    -0.320473    -2.337797
 C     0.784128     3.180604    -1.748728
 H     0.333443     4.162965    -1.599735
 C     1.850170     1.568686    -3.213628
 H     2.221374     1.299973    -4.202641
 C     1.267782     2.817081    -3.003678
Cl     1.106984     3.912267    -4.335084
