  88
scf done:    -2753.762207
 C     1.625265    -2.682494    -2.294081
 H     1.412098    -3.081032    -3.297281
 H     2.497018    -2.021531    -2.428168
 C     1.953427    -3.812905    -1.327942
 H     1.116606    -4.524398    -1.234088
 H     2.834921    -4.394939    -1.657486
 H     2.179610    -3.443671    -0.313927
Rh    -0.068854    -1.677785    -1.483063
 C     2.920315    -0.818715     0.211291
 O     2.042091     0.761613    -1.822986
 O     0.749424     0.816365     0.449480
 C    -2.284675     0.992898    -0.753493
 O    -3.230006    -1.553326    -0.631860
 O    -1.744345    -0.614681     1.235711
 P    -1.798463    -0.723752    -0.430223
 P     1.431456    -0.219735    -0.636004
 C    -1.088243    -2.553272    -2.794026
 O    -1.687447    -2.996861    -3.663475
 C     2.793438    -1.274277     1.529353
 H     1.847392    -1.170116     2.064056
 C     4.130153    -0.972793    -0.468846
 H     4.210670    -0.633722    -1.504281
 C     3.889026    -1.854564     2.156948
 H     3.796629    -2.201690     3.188617
 C     5.235861    -1.565740     0.151893
 C     6.518631    -1.758902    -0.602916
 H     6.451154    -2.635780    -1.267862
 H     6.748728    -0.889628    -1.236798
 H     7.367138    -1.922520     0.076240
 C     5.097498    -1.997365     1.475184
 H     5.951673    -2.458469     1.978776
 C     2.421304     2.071572    -1.652343
 C     3.774322     2.406880    -1.675445
 H     4.519331     1.624026    -1.821218
 C     1.447623     3.056554    -1.484567
 H     0.394480     2.772684    -1.475657
 C     4.152645     3.736723    -1.500466
 H     5.213048     3.999793    -1.514363
 C     1.838043     4.379387    -1.300971
 H     1.073924     5.145253    -1.149854
 C     3.189214     4.724585    -1.302475
 H     3.491180     5.763556    -1.154118
 C     1.191279     1.755681     1.342333
 C     2.531002     2.062491     1.576373
 H     3.323320     1.547527     1.036306
 C     0.179607     2.432233     2.026877
 H    -0.855648     2.171540     1.802552
 C     2.846511     3.058334     2.499240
 H     3.897078     3.303023     2.672293
 C     0.510266     3.422206     2.946429
 H    -0.285993     3.952472     3.474779
 C     1.846695     3.740860     3.188652
 H     2.107024     4.520877     3.907222
 C    -1.933065     1.522747    -1.999245
 H    -1.357824     0.909986    -2.700623
 C    -3.000818     1.767325     0.162469
 H    -3.271444     1.338241     1.130344
 C    -2.303670     2.827151    -2.316523
 H    -2.029748     3.251653    -3.285209
 C    -3.374733     3.079091    -0.144816
 C    -4.137953     3.898770     0.854279
 H    -5.021126     3.352008     1.218917
 H    -3.514312     4.132033     1.732729
 H    -4.477516     4.850733     0.423101
 C    -3.015301     3.595115    -1.395721
 H    -3.300518     4.619224    -1.652320
 C    -4.414630    -1.125942    -0.087523
 C    -5.289924    -0.368274    -0.865386
 H    -5.007871    -0.121646    -1.890438
 C    -4.736788    -1.457986     1.228580
 H    -4.037762    -2.057931     1.813385
 C    -6.492943     0.067984    -0.315746
 H    -7.178452     0.662797    -0.924048
 C    -5.941948    -1.014335     1.769211
 H    -6.196345    -1.272866     2.799924
 C    -6.820665    -0.248450     1.002818
 H    -7.764533     0.095984     1.431339
 C    -0.995128    -1.444422     2.015125
 C    -0.663896    -2.748331     1.632699
 H    -1.006484    -3.141924     0.671576
 C    -0.567305    -0.942278     3.246526
 H    -0.827954     0.082079     3.515916
 C     0.110483    -3.535952     2.483689
 H     0.377175    -4.548406     2.172407
 C     0.191658    -1.745949     4.093634
 H     0.524452    -1.345781     5.054270
 C     0.538292    -3.044288     3.715654
 H     1.139415    -3.669826     4.378955
