  80
scf done:    -2000.858153
 C     0.923079    -3.227198    -0.777844
 H     0.996173    -3.611912    -1.809012
 H     1.962041    -3.054847    -0.453497
 C     0.287178    -4.280407     0.122120
 H    -0.712012    -4.577863    -0.233833
 H     0.898727    -5.201088     0.184455
 H     0.154833    -3.919829     1.157108
Rh    -0.228901    -1.459278    -0.627264
 C     1.820830     0.651848     1.404543
 C     3.336076    -0.873898    -0.558112
 C     1.703291     1.297259    -1.413982
 C    -1.664751     1.845899    -0.699198
 C    -3.517312    -0.198597    -0.260433
 C    -1.668412     0.310427     1.924170
 P    -1.733686     0.171363     0.082742
 P     1.666855    -0.136152    -0.255427
 C    -1.421913    -2.284148    -1.757779
 O    -2.102456    -2.696426    -2.594419
 C     1.571757     2.023873     1.563839
 H     1.350719     2.642825     0.693363
 C     2.051159    -0.137844     2.553222
 C     2.266622    -1.622091     2.480083
 H     3.330417    -1.867519     2.330183
 H     1.703522    -2.076890     1.650245
 H     1.948046    -2.107507     3.413219
 C     1.576115     2.623673     2.820535
 H     1.380938     3.694849     2.911862
 C     2.060991     0.486373     3.806567
 H     2.240944    -0.126270     4.694447
 C     1.831228     1.851383     3.950422
 H     1.840941     2.306822     4.943383
 H     4.109028    -0.147713    -0.257686
 H     3.443514    -1.743808     0.105033
 C     3.513066    -1.317069    -2.007355
 H     3.577869    -0.433125    -2.662799
 H     2.611548    -1.864829    -2.326854
 C     4.744880    -2.186588    -2.202869
 H     5.663311    -1.661865    -1.893515
 H     4.672861    -3.110899    -1.607737
 H     4.866022    -2.479252    -3.256856
 H     1.470215     0.869062    -2.402097
 H     0.827705     1.915252    -1.171427
 C     2.964940     2.151050    -1.476452
 H     3.795935     1.563479    -1.898218
 H     3.286488     2.434081    -0.460831
 C     2.750997     3.403713    -2.313866
 H     2.450416     3.147911    -3.342442
 H     1.951038     4.032740    -1.890829
 H     3.665898     4.012773    -2.372671
 C    -1.487377     1.746687    -2.090308
 H    -1.374578     0.748991    -2.527805
 C    -1.773504     3.125553    -0.113641
 C    -2.033724     3.364304     1.346811
 H    -1.187472     3.052639     1.976019
 H    -2.918942     2.814749     1.696437
 H    -2.210485     4.432495     1.532330
 C    -1.400405     2.869401    -2.904111
 H    -1.262819     2.755337    -3.981651
 C    -1.645674     4.246310    -0.948978
 H    -1.711994     5.240318    -0.497864
 C    -1.461212     4.133457    -2.323147
 H    -1.372247     5.032601    -2.937478
 H    -4.122159     0.661592     0.075064
 H    -3.590447    -0.221011    -1.361077
 C    -4.048772    -1.501358     0.322420
 H    -4.165883    -1.395932     1.413817
 H    -3.303370    -2.300178     0.169234
 C    -5.375080    -1.914973    -0.296413
 H    -6.140962    -1.132761    -0.170207
 H    -5.261162    -2.100122    -1.376193
 H    -5.760881    -2.838370     0.161568
 H    -0.844700     0.992823     2.179562
 H    -2.600039     0.753841     2.310257
 C    -1.405059    -1.043939     2.578736
 H    -0.466699    -1.453752     2.170213
 H    -2.183013    -1.767213     2.291509
 C    -1.326697    -0.948529     4.093396
 H    -0.537576    -0.246555     4.404595
 H    -2.277366    -0.592488     4.522736
 H    -1.105596    -1.928230     4.544170
