  98
scf done:    -2609.171086
 C     3.034569    -0.085311     2.058316
 H     3.188705    -0.428269     3.088627
 H     3.783372    -0.563202     1.412984
 C     3.004968     1.423737     1.911172
 H     3.018739     1.950816     2.875733
 H     3.809392     1.811271     1.267141
 H     2.061526     1.779929     1.395323
Rh     1.056155    -0.139825     1.376719
 O     3.185851    -0.889378    -1.176390
 O     1.961284    -2.835081    -0.376074
 O     0.698866    -1.224617    -1.724432
 O    -1.877504    -0.726218    -0.076498
 O    -2.003732     1.337054     1.401422
 O    -0.789309     1.534795    -0.712964
 P    -0.919954     0.485974     0.513906
 P     1.708873    -1.230886    -0.456711
 C     0.460761    -0.764203     3.037773
 O     0.107306    -1.337164     3.973389
 C     3.629279     0.392274    -1.325560
 C     4.989290     0.636559    -1.125561
 H     5.636618    -0.199118    -0.852589
 C     2.777264     1.443806    -1.668325
 H     1.711433     1.260084    -1.822183
 C     5.490566     1.925881    -1.262163
 H     6.556874     2.103883    -1.096166
 C     3.298706     2.730756    -1.796035
 H     2.624032     3.548916    -2.059299
 C     4.655219     3.000892    -1.595692
 C     5.205494     4.388513    -1.758117
 H     5.984684     4.603420    -1.011544
 H     4.416761     5.147617    -1.653633
 H     5.662679     4.523911    -2.752743
 C     2.844844    -3.465816     0.541858
 H     3.186528    -4.377789     0.026171
 H     3.731853    -2.833351     0.710817
 C     2.165083    -3.818007     1.849506
 H     2.877654    -4.417178     2.443999
 H     1.981599    -2.893287     2.417598
 C     0.855895    -4.574161     1.674966
 H     1.033952    -5.488406     1.079780
 H     0.171178    -3.951673     1.075843
 C     0.199608    -4.932367     2.998240
 H     0.850129    -5.579546     3.609119
 H    -0.014742    -4.027599     3.588159
 H    -0.750904    -5.466056     2.845683
 C     0.904618    -1.981289    -2.919651
 H     0.424974    -1.388576    -3.715256
 H     1.983040    -2.031972    -3.140505
 C     0.298018    -3.369998    -2.847866
 H     0.410749    -3.829509    -3.846491
 H     0.892541    -3.977999    -2.149947
 C    -1.161816    -3.388972    -2.420160
 H    -1.772852    -2.836459    -3.155259
 H    -1.257817    -2.833226    -1.474010
 C    -1.709886    -4.795332    -2.247005
 H    -1.644009    -5.376741    -3.181434
 H    -1.146415    -5.346124    -1.476210
 H    -2.766121    -4.779720    -1.938024
 C    -2.939663    -0.503330    -0.916489
 C    -2.716480    -0.216394    -2.263689
 H    -1.688113    -0.148716    -2.619949
 C    -4.238988    -0.600125    -0.427842
 H    -4.395259    -0.834954     0.626003
 C    -3.801918    -0.013887    -3.109163
 H    -3.620408     0.215226    -4.163178
 C    -5.315643    -0.398441    -1.288902
 H    -6.333545    -0.473312    -0.896364
 C    -5.120279    -0.100199    -2.641653
 C    -6.282550     0.089589    -3.572961
 H    -6.089163     0.891102    -4.301473
 H    -7.201618     0.341767    -3.024960
 H    -6.484192    -0.829706    -4.147956
 C    -2.422493     0.914727     2.691039
 H    -2.804144    -0.121155     2.640513
 H    -1.559806     0.919059     3.376861
 C    -3.496121     1.859575     3.181483
 H    -3.734415     1.589413     4.224902
 H    -3.072245     2.878553     3.214831
 C    -4.762899     1.855504     2.337670
 H    -5.202327     0.842348     2.352721
 H    -4.492428     2.048415     1.286726
 C    -5.794584     2.868557     2.804340
 H    -6.102361     2.680155     3.845670
 H    -5.393356     3.893989     2.761775
 H    -6.700274     2.840762     2.179870
 C    -1.656406     2.634246    -1.002019
 H    -1.590120     2.768732    -2.093055
 H    -2.696597     2.375702    -0.756382
 C    -1.219713     3.888169    -0.272776
 H    -1.891677     4.708099    -0.583167
 H    -1.384763     3.741164     0.807072
 C     0.230644     4.267857    -0.529454
 H     0.376294     4.429443    -1.613049
 H     0.870392     3.410654    -0.265353
 C     0.681321     5.497073     0.240691
 H     0.085110     6.385120    -0.024931
 H     0.577625     5.343588     1.326903
 H     1.738104     5.731868     0.040559
