  66
scf done:    -2065.826798
 C    -1.859183    -2.276529    -0.204671
 H    -1.686112    -3.333761     0.057143
 H    -2.375942    -1.847746     0.672036
 C    -2.766701    -2.195644    -1.424595
 H    -2.312511    -2.687133    -2.300287
 H    -3.750152    -2.675851    -1.254216
 H    -2.976271    -1.153183    -1.715566
Rh    -0.028707    -1.273819    -0.635628
 C    -2.670487     0.795554     0.441532
 C    -0.641217    -0.098915     2.456419
 C    -0.205119     2.132453     0.832430
 C     2.917191     0.499022     0.088556
 C     3.114013    -1.108394    -2.267224
 C     1.561668     1.219080    -2.469658
 P     1.879757    -0.154783    -1.294704
 P    -0.887745     0.426297     0.719102
 C     0.659055    -2.926707    -1.026210
 O     1.139719    -3.974079    -1.116095
 C    -2.986914     1.337931    -0.819366
 O    -1.933147     1.589154    -1.627688
 C    -2.159287     1.878810    -2.980052
 H    -1.172710     1.926634    -3.456384
 H    -2.754609     1.087648    -3.465772
 H    -2.667966     2.849554    -3.112276
 C    -3.735857     0.476374     1.302632
 O    -3.416283    -0.077702     2.489722
 C    -4.430633    -0.549783     3.329574
 H    -3.930800    -1.008182     4.192569
 H    -5.052018    -1.312464     2.829500
 H    -5.082874     0.265462     3.688941
 C    -5.064258     0.712753     0.923155
 H    -5.885866     0.464401     1.593283
 C    -4.309011     1.579320    -1.206160
 H    -4.539565     1.999564    -2.183942
 C    -5.334338     1.263872    -0.323096
 H    -6.371045     1.445678    -0.615837
 H    -1.054759    -1.102439     2.605280
 H     0.451488    -0.140945     2.586904
 H    -1.080877     0.600172     3.179799
 H    -0.771250     2.714958     1.574135
 H     0.845076     2.067180     1.147196
 H    -0.264919     2.628202    -0.143490
 C     3.218343     1.846782     0.360939
 O     2.846690     2.757012    -0.564590
 C     3.005016     4.120707    -0.297698
 H     2.595183     4.656467    -1.163709
 H     2.451739     4.428304     0.606913
 H     4.066810     4.398653    -0.178700
 C     3.310527    -0.463919     1.043231
 O     3.054669    -1.740277     0.711763
 C     3.046133    -2.741816     1.692952
 H     2.643004    -3.639328     1.208139
 H     2.394082    -2.466376     2.538614
 H     4.062037    -2.955342     2.068004
 C     3.922454    -0.100507     2.248139
 H     4.206408    -0.857462     2.978467
 C     3.844007     2.218675     1.559385
 H     4.067954     3.263677     1.768507
 C     4.181149     1.242994     2.490957
 H     4.664589     1.538501     3.425092
 H     3.462105    -1.958866    -1.668527
 H     2.615077    -1.491877    -3.169572
 H     3.969564    -0.479309    -2.554776
 H     2.477768     1.720109    -2.807089
 H     1.053797     0.746125    -3.324311
 H     0.882742     1.952575    -2.020741
