  80
scf done:    -2921.558305
 C    -1.966121     0.231571    -3.047746
 H    -2.011406    -0.465320    -3.892631
 H    -2.982104     0.410158    -2.670751
 C    -1.173627     1.487028    -3.312594
 H    -0.675472     1.495569    -4.292020
 H    -1.751875     2.413178    -3.178482
 H    -0.323690     1.618086    -2.555145
Rh    -0.510308    -0.205721    -1.618247
 O    -3.046912     1.385616     0.157967
 C    -3.541916    -1.156080    -0.284613
 C    -1.746782    -0.369485     1.706845
 O     1.554554    -1.488606     0.629642
 C     2.967881    -0.024398    -1.239985
 C     1.609439     1.232736     0.872562
 P     1.383594    -0.125047    -0.330533
 P    -2.123903    -0.020154    -0.048116
 C     0.004202    -1.788530    -2.462106
 O     0.215890    -2.860319    -2.833340
 C    -2.647983     2.592488    -0.329178
 C    -1.389920     3.121713    -0.034764
 H    -0.700300     2.563436     0.600222
 C    -3.546773     3.308797    -1.122872
 H    -4.522546     2.868069    -1.335677
 C    -1.030670     4.364216    -0.554377
 H    -0.044026     4.771391    -0.322506
 C    -3.180554     4.553555    -1.627922
 H    -3.885689     5.111428    -2.248826
 C    -1.918498     5.082988    -1.353231
 H    -1.631538     6.056767    -1.755809
 C    -3.421458    -2.264401    -1.125664
 H    -2.488970    -2.416283    -1.673177
 C    -4.743167    -0.945972     0.406367
 H    -4.846804    -0.077801     1.060504
 C    -4.476922    -3.161484    -1.275409
 H    -4.399743    -4.032925    -1.927854
 C    -5.807425    -1.826910     0.256745
 H    -6.753564    -1.679262     0.780681
 C    -5.656680    -2.927789    -0.581926
 F    -6.673157    -3.775000    -0.723071
 C    -2.042770     0.539057     2.727018
 H    -2.533305     1.483203     2.482433
 C    -1.125815    -1.584407     2.024698
 H    -0.877475    -2.293159     1.231416
 C    -1.712184     0.249060     4.049759
 H    -1.932826     0.945253     4.861150
 C    -0.789588    -1.883824     3.340309
 H    -0.296390    -2.820539     3.605689
 C    -1.085700    -0.957342     4.336701
 F    -0.758476    -1.235390     5.597274
 C     2.739233    -2.051846     1.019835
 C     3.261084    -1.787172     2.286592
 H     2.727843    -1.113047     2.957509
 C     3.397677    -2.923706     0.150581
 H     2.962723    -3.120145    -0.831402
 C     4.457973    -2.388532     2.673802
 H     4.866278    -2.181713     3.665969
 C     4.593536    -3.515681     0.546193
 H     5.110117    -4.193444    -0.137387
 C     5.130454    -3.247398     1.805795
 H     6.069265    -3.713274     2.112970
 C     4.182771     0.193501    -0.569008
 H     4.192679     0.339963     0.512964
 C     2.983388    -0.196414    -2.628307
 H     2.038519    -0.356529    -3.153886
 C     5.384006     0.219652    -1.264718
 H     6.336975     0.376560    -0.756809
 C     4.179527    -0.162488    -3.340320
 H     4.206254    -0.291234    -4.423628
 C     5.364827     0.038907    -2.644995
 F     6.512152     0.066500    -3.313671
 C     1.211362     1.095538     2.206305
 H     0.841194     0.134640     2.565342
 C     2.064915     2.481286     0.424096
 H     2.374452     2.609325    -0.616383
 C     1.271706     2.176371     3.082381
 H     0.961199     2.080101     4.124069
 C     2.129554     3.568120     1.289229
 H     2.489033     4.544230     0.958365
 C     1.728749     3.400319     2.611215
 F     1.787819     4.436889     3.441250
