  70
scf done:    -2366.569360
 C    -3.666398     1.299044     0.177318
 H    -4.512346     0.778128     0.650839
 H    -3.430860     2.165668     0.814620
 C    -4.023754     1.766645    -1.223481
 H    -4.906088     2.435364    -1.227262
 H    -3.196874     2.337678    -1.679369
 H    -4.263982     0.924077    -1.894644
Rh    -2.036034     0.027280    -0.258417
 C     1.052241     1.480790     0.847785
 O    -0.905572     3.124734    -0.172175
 O    -1.163227     2.160797     2.107232
 C     1.140671    -1.739088    -0.558923
 O    -0.842230    -2.662737    -1.913606
 O     0.016401    -0.508426    -2.759939
 P    -0.424515    -1.183754    -1.330786
 P    -0.765116     1.683030     0.581125
 C    -3.013286    -1.454692     0.291944
 O    -3.476874    -2.354656     0.846753
 C     1.426233     0.562208     1.850596
 O     0.408708    -0.091367     2.437281
 C     0.656254    -0.978622     3.490091
 H    -0.318409    -1.390805     3.779705
 H     1.318716    -1.802518     3.176994
 H     1.104758    -0.462314     4.356763
 C     2.077916     2.126066     0.133793
 O     1.710771     2.932248    -0.883583
 C     2.678563     3.678279    -1.562502
 H     2.141281     4.273285    -2.312067
 H     3.411585     3.034549    -2.078868
 H     3.220488     4.360774    -0.884632
 C     3.423405     1.930174     0.478738
 H     4.215100     2.458800    -0.050199
 C     2.764536     0.350200     2.191358
 H     3.040067    -0.363828     2.965392
 C     3.747823     1.050334     1.503799
 H     4.797526     0.895430     1.764383
 C    -0.523193     4.336573     0.438009
 H    -1.278212     4.656063     1.172283
 H     0.448717     4.252368     0.950594
 H    -0.442509     5.091968    -0.356237
 C    -1.997924     1.437786     2.977000
 H    -2.865258     2.060206     3.248074
 H    -2.359933     0.510318     2.504347
 H    -1.436836     1.186643     3.890248
 C     2.430556    -1.326991    -0.935867
 O     2.527493    -0.355584    -1.860726
 C     3.771314    -0.064153    -2.426702
 H     3.584921     0.667433    -3.223971
 H     4.464994     0.377505    -1.690596
 H     4.237811    -0.960657    -2.870149
 C     1.013057    -2.691423     0.470762
 O    -0.246780    -2.972411     0.841765
 C    -0.518391    -4.064272     1.673246
 H    -1.610895    -4.116881     1.756654
 H    -0.088584    -3.932278     2.681768
 H    -0.136025    -5.004932     1.241413
 C     2.137248    -3.283027     1.057346
 H     2.030956    -4.044302     1.829715
 C     3.561171    -1.916305    -0.349667
 H     4.562396    -1.607527    -0.645505
 C     3.400876    -2.889761     0.626723
 H     4.286090    -3.348098     1.074458
 C    -1.997053    -2.762989    -2.712170
 H    -2.850686    -2.225711    -2.261411
 H    -1.815504    -2.357136    -3.721058
 H    -2.251636    -3.828886    -2.792965
 C    -0.112417     0.877285    -2.982604
 H     0.009800     1.041433    -4.062977
 H    -1.106421     1.248498    -2.676742
 H     0.655592     1.447770    -2.439478
