 110
scf done:    -3289.976819
 C     1.226021     1.042674    -3.132858
 H     1.196338     2.033155    -3.613693
 H     2.291684     0.813045    -2.980209
 C     0.591457    -0.000885    -4.039264
 H    -0.466783     0.225895    -4.252796
 H     1.106407    -0.071818    -5.017075
 H     0.633678    -1.011019    -3.595991
Rh     0.047568     0.953140    -1.381206
 C     2.372459    -1.718695    -1.457963
 C     3.316011     0.853666    -0.368522
 C     1.872433    -0.791769     1.252888
 C    -1.475902     0.440946     1.927798
 C    -3.210760     1.494480    -0.050625
 C    -2.492309    -1.110914    -0.428515
 P    -1.688319     0.450795     0.101943
 P     1.837065    -0.234976    -0.502097
 C    -0.511754     2.670552    -1.708557
 O    -0.684549     3.813520    -1.751756
 C     1.534747    -2.850983    -1.387360
 O     0.451238    -2.714258    -0.603277
 C    -0.337752    -3.830679    -0.297924
 H    -1.166025    -3.452166     0.310087
 H    -0.754875    -4.299675    -1.202889
 H     0.241556    -4.580356     0.270557
 C     3.461619    -1.765988    -2.353082
 O     4.188232    -0.646863    -2.489531
 C     5.311297    -0.622828    -3.320597
 H     5.739155     0.382946    -3.224314
 H     5.043278    -0.802275    -4.376405
 H     6.067413    -1.364640    -3.009618
 C     3.749756    -2.935972    -3.070710
 H     4.601634    -2.971505    -3.748206
 C     1.822699    -4.025218    -2.092167
 H     1.179100    -4.899354    -2.006765
 C     2.935736    -4.051953    -2.924161
 H     3.166662    -4.961357    -3.484040
 C     4.504532     0.384745     0.213531
 H     4.568600    -0.651804     0.555118
 C     3.250942     2.185171    -0.763984
 H     2.318931     2.556038    -1.198520
 C     5.599814     1.216008     0.361601
 H     6.530535     0.860699     0.808375
 C     4.345480     3.041159    -0.612339
 H     4.254748     4.079399    -0.932604
 C     5.530274     2.556309    -0.054370
 O     6.645582     3.293764     0.131619
 C     6.630635     4.638911    -0.251105
 H     5.868133     5.216177     0.301620
 H     7.622557     5.045883    -0.015859
 H     6.443803     4.757639    -1.333411
 C     1.709521     0.227100     2.206897
 H     1.521529     1.249953     1.869185
 C     2.141988    -2.079163     1.706557
 H     2.325017    -2.885268     0.994622
 C     1.801293    -0.037312     3.560974
 H     1.672528     0.752109     4.301982
 C     2.213773    -2.366895     3.073408
 H     2.426140    -3.389056     3.388986
 C     2.032358    -1.344883     4.008139
 O     2.053877    -1.522318     5.348652
 C     2.313958    -2.800092     5.850070
 H     3.305365    -3.173813     5.537344
 H     2.294403    -2.722139     6.944842
 H     1.549203    -3.532973     5.533029
 C    -1.444345    -0.662225     2.798730
 O    -1.499253    -1.891321     2.250802
 C    -1.494544    -3.011412     3.088939
 H    -1.579824    -3.889164     2.436377
 H    -0.553386    -3.082503     3.660250
 H    -2.348384    -3.005944     3.788510
 C    -1.261777     1.722209     2.483929
 O    -1.170026     2.713559     1.583932
 C    -1.099619     4.051640     1.989807
 H    -1.064143     4.644774     1.067885
 H    -0.189765     4.249042     2.582323
 H    -1.987892     4.340414     2.577351
 C    -1.161355     1.920742     3.863345
 H    -1.026742     2.919650     4.276457
 C    -1.349821    -0.470985     4.185628
 H    -1.333677    -1.322110     4.863562
 C    -1.225900     0.812018     4.700788
 H    -1.145021     0.947430     5.781752
 C    -4.071848     1.782212     1.016974
 H    -3.823309     1.444957     2.026155
 C    -3.577987     1.929192    -1.323720
 H    -2.927097     1.705191    -2.173289
 C    -5.243181     2.498788     0.818493
 H    -5.912170     2.733626     1.648910
 C    -4.754939     2.644277    -1.541363
 H    -4.998643     2.968619    -2.553264
 C    -5.595730     2.939711    -0.463825
 O    -6.750198     3.632666    -0.563011
 C    -7.145731     4.098862    -1.821004
 H    -7.306409     3.271895    -2.535639
 H    -8.094864     4.631077    -1.676867
 H    -6.407229     4.797861    -2.252546
 C    -2.153437    -1.595738    -1.698158
 H    -1.347330    -1.107900    -2.255185
 C    -3.542808    -1.724428     0.255886
 H    -3.859456    -1.337309     1.226742
 C    -2.822839    -2.675967    -2.256209
 H    -2.563553    -3.054278    -3.246912
 C    -4.209215    -2.824754    -0.278951
 H    -5.020086    -3.283693     0.287463
 C    -3.848993    -3.308592    -1.544741
 O    -4.434569    -4.364525    -2.147888
 C    -5.490753    -5.012105    -1.498936
 H    -6.342040    -4.332310    -1.317144
 H    -5.820175    -5.821965    -2.162474
 H    -5.176957    -5.449076    -0.533784
