 100
scf done:    -2386.932902
 C    -1.561746    -3.274088    -0.967472
 H    -1.222651    -4.165322    -0.410526
 H    -2.396900    -2.862365    -0.374566
 C    -2.068967    -3.679509    -2.342869
 H    -2.932135    -4.368637    -2.278865
 H    -2.392700    -2.802679    -2.922214
 H    -1.292200    -4.192315    -2.932112
Rh     0.074501    -1.906125    -0.885431
 O    -2.766871    -0.636059    -1.841348
 C    -2.440185    -0.233215     0.925662
 C    -1.325733     1.481846    -1.118057
 O     1.910760     0.270270     0.945559
 C     3.470636    -1.644003    -0.194069
 C     2.443136     0.672165    -1.637652
 P     1.935475    -0.656898    -0.478502
 P    -1.585230    -0.291736    -0.698392
 C     1.036182    -3.296012    -1.647488
 O     1.587850    -4.125501    -2.222387
 C    -4.098007    -0.376329    -1.723564
 C    -4.638214     0.782212    -2.287672
 H    -3.980616     1.465788    -2.827685
 C    -4.929123    -1.293434    -1.075142
 H    -4.491903    -2.211519    -0.678100
 C    -6.000523     1.044019    -2.156055
 H    -6.418599     1.954490    -2.592315
 C    -6.288545    -1.021662    -0.946696
 H    -6.933816    -1.737296    -0.431473
 C    -6.828213     0.151756    -1.475133
 H    -7.894672     0.362285    -1.370124
 H    -2.878023    -1.235433     1.067457
 H    -1.605643    -0.188480     1.646609
 C    -3.458654     0.856844     1.235794
 H    -2.986102     1.849258     1.147917
 H    -4.281004     0.845329     0.505055
 C    -4.035136     0.706265     2.636930
 H    -3.211685     0.711704     3.374184
 H    -4.510589    -0.287515     2.726381
 C    -5.050423     1.783531     2.989702
 H    -4.573834     2.775424     2.892567
 H    -5.863177     1.769086     2.242067
 C    -5.632415     1.630349     4.385505
 H    -6.362011     2.422430     4.612711
 H    -4.843744     1.673941     5.154096
 H    -6.146467     0.662283     4.499174
 H    -0.881851     1.475170    -2.128214
 H    -2.322602     1.942771    -1.215032
 C    -0.460049     2.274277    -0.151858
 H    -0.964980     2.354509     0.824780
 H     0.473158     1.731297     0.050994
 C    -0.116663     3.667923    -0.658270
 H    -1.042093     4.253887    -0.804887
 H     0.344325     3.587359    -1.660042
 C     0.828449     4.420816     0.267808
 H     0.362411     4.510667     1.265226
 H     1.738168     3.812827     0.418242
 C     1.214365     5.798027    -0.245632
 H     1.900460     6.312172     0.444284
 H     0.328791     6.440520    -0.375485
 H     1.717444     5.731390    -1.223816
 C     1.168864    -0.064017     2.031735
 C     0.795303     0.974743     2.891278
 H     1.120808     1.989903     2.657145
 C     0.773010    -1.376799     2.311487
 H     1.050559    -2.190698     1.634904
 C     0.016692     0.702289     4.012370
 H    -0.274861     1.520952     4.674850
 C    -0.011313    -1.635029     3.435302
 H    -0.326782    -2.661299     3.637105
 C    -0.397214    -0.602487     4.287770
 H    -1.014868    -0.811795     5.163533
 H     3.129340    -2.632309     0.154435
 H     3.902094    -1.819943    -1.195986
 C     4.508603    -1.092428     0.773815
 H     4.857283    -0.100463     0.447188
 H     4.035192    -0.929199     1.755809
 C     5.704491    -2.021157     0.934610
 H     6.182725    -2.180790    -0.049174
 H     5.352813    -3.017549     1.258957
 C     6.741218    -1.505073     1.922857
 H     7.086651    -0.507977     1.596345
 H     6.256644    -1.345447     2.902289
 C     7.934490    -2.432470     2.085886
 H     8.664794    -2.033070     2.805802
 H     8.458800    -2.581619     1.128178
 H     7.621718    -3.425822     2.445909
 H     2.728908     0.135668    -2.559576
 H     1.507591     1.196294    -1.890673
 C     3.508375     1.671657    -1.208505
 H     3.284692     2.020597    -0.187096
 H     4.491613     1.176558    -1.153192
 C     3.603518     2.867265    -2.146944
 H     2.607730     3.338039    -2.235899
 H     3.860684     2.520424    -3.164255
 C     4.611789     3.913716    -1.694066
 H     4.336295     4.261948    -0.682578
 H     5.603679     3.440129    -1.586392
 C     4.711441     5.103081    -2.635172
 H     5.443681     5.843323    -2.279133
 H     3.741528     5.617007    -2.733250
 H     5.019175     4.789131    -3.645486
