 110
scf done:    -3290.119186
 C    -0.860899    -2.528501    -2.311828
 H    -0.628399    -3.603813    -2.271080
 H    -1.951577    -2.451402    -2.172243
 C    -0.447497    -1.937801    -3.650603
 H     0.635762    -2.047363    -3.828233
 H    -0.963424    -2.425873    -4.499402
 H    -0.684180    -0.862007    -3.715369
Rh     0.297713    -1.404183    -0.935342
 C    -2.686118     0.286916    -1.900451
 O    -2.747286    -1.376614     0.178898
 O    -1.642328     0.879704     0.545444
 C     1.290333     0.508386     1.905790
 O     3.235094    -0.479727     0.465627
 O     1.929286     1.385003    -0.681670
 P     1.661582     0.001812     0.193526
 P    -1.644570    -0.376847    -0.548295
 C     1.244070    -2.973033    -0.567143
 O     1.653879    -3.975257    -0.178651
 C    -2.189696     1.479372    -2.467023
 O    -1.051002     1.928598    -1.918196
 C    -0.558642     3.201295    -2.230658
 H     0.303470     3.357734    -1.572454
 H    -0.228114     3.262892    -3.282087
 H    -1.317294     3.978754    -2.038402
 C    -3.846176    -0.286116    -2.460095
 O    -4.281252    -1.444930    -1.944322
 C    -5.421619    -2.059436    -2.471055
 H    -5.568835    -2.979930    -1.892444
 H    -5.293044    -2.321695    -3.535635
 H    -6.317712    -1.423247    -2.364412
 C    -4.505124     0.355302    -3.520113
 H    -5.406866    -0.076298    -3.951406
 C    -2.847979     2.124888    -3.516837
 H    -2.461424     3.054119    -3.932878
 C    -4.005356     1.549057    -4.026578
 H    -4.530593     2.039700    -4.849590
 C    -2.423098    -2.175126     1.241643
 C    -2.452053    -1.647279     2.531428
 H    -2.655212    -0.582302     2.661605
 C    -2.137185    -3.522567     1.025403
 H    -2.097015    -3.899335     0.003088
 C    -2.237404    -2.472780     3.640102
 C    -2.326286    -1.910243     5.029331
 H    -1.953111    -0.876543     5.063840
 H    -3.371292    -1.895663     5.381537
 H    -1.748551    -2.511308     5.746995
 C    -1.913929    -4.344850     2.125621
 H    -1.689933    -5.403013     1.970494
 C    -1.973157    -3.830165     3.420939
 H    -1.806278    -4.490880     4.276297
 C    -2.652028     1.783360     0.710056
 C    -3.997434     1.414729     0.723816
 H    -4.266731     0.365013     0.593975
 C    -2.282989     3.120553     0.868492
 H    -1.221520     3.361402     0.838346
 C    -4.994378     2.384488     0.884131
 C    -6.438833     1.975885     0.849929
 H    -6.630060     1.122644     1.518665
 H    -7.100888     2.800697     1.148721
 H    -6.730343     1.661733    -0.165925
 C    -3.271387     4.082309     1.043445
 H    -2.989540     5.130978     1.169895
 C    -4.619159     3.720875     1.049063
 H    -5.389373     4.485347     1.179653
 C     0.939454     1.795792     2.348272
 O     0.984738     2.799335     1.450980
 C     1.112000     4.120383     1.904324
 H     1.363533     4.725588     1.023565
 H     0.173732     4.498520     2.346547
 H     1.924445     4.213514     2.644259
 C     1.237094    -0.561849     2.825610
 O     1.582015    -1.756853     2.330871
 C     1.526575    -2.907249     3.133216
 H     1.806933    -3.742492     2.480494
 H     0.508039    -3.079471     3.513577
 H     2.238169    -2.841730     3.974338
 C     0.859242    -0.352720     4.155397
 H     0.820543    -1.182004     4.859955
 C     0.565657     2.008460     3.681352
 H     0.290876     3.005076     4.024137
 C     0.527519     0.934635     4.563296
 H     0.228784     1.106633     5.600380
 C     3.916330    -1.268213    -0.414945
 C     3.782345    -1.120500    -1.794650
 H     3.123593    -0.344680    -2.192108
 C     4.761981    -2.241742     0.117356
 H     4.834909    -2.338053     1.201654
 C     4.478469    -1.963249    -2.668954
 C     4.288651    -1.817623    -4.150715
 H     3.253946    -2.066426    -4.438011
 H     4.474102    -0.782531    -4.477434
 H     4.963067    -2.479132    -4.712006
 C     5.467755    -3.068033    -0.748957
 H     6.130661    -3.835726    -0.342465
 C     5.324764    -2.936470    -2.131055
 H     5.876335    -3.600353    -2.801503
 C     2.946423     2.288381    -0.583132
 C     3.769904     2.417196     0.535622
 H     3.640551     1.745244     1.384325
 C     3.128435     3.125988    -1.686949
 H     2.491074     2.990521    -2.562008
 C     4.766863     3.397314     0.574109
 C     5.660282     3.502661     1.776761
 H     5.093211     3.380415     2.711961
 H     6.429729     2.713165     1.761755
 H     6.178994     4.471139     1.811928
 C     4.116028     4.104774    -1.648251
 H     4.255522     4.763141    -2.509314
 C     4.928541     4.247515    -0.524916
 H     5.702165     5.019168    -0.503060
