  94
scf done:    -4670.068372
 C    -1.258549     0.295491    -3.282450
 H    -1.198632    -0.400675    -4.133191
 H    -2.329272     0.407480    -3.055143
 C    -0.660153     1.642029    -3.658189
 H     0.404958     1.559974    -3.933476
 H    -1.177698     2.097652    -4.524191
 H    -0.738676     2.372393    -2.833994
Rh    -0.065308    -0.314157    -1.651859
 C    -2.438428     2.114838    -0.563087
 C    -3.334033    -0.680763    -0.669878
 C    -1.845643     0.105920     1.464095
 C     1.609723    -1.262469     1.507208
 C     3.269515    -1.147332    -0.792208
 C     2.406501     1.262498     0.105309
 P     1.699564    -0.419579    -0.121100
 P    -1.855287     0.380975    -0.358111
 C     0.525924    -1.739345    -2.653477
 O     0.737176    -2.755654    -3.160079
 C    -1.648804     3.126887     0.021211
 O    -0.563381     2.694103     0.685932
 C     0.167461     3.579550     1.490409
 H     1.004806     2.997265     1.889261
 H     0.572923     4.424416     0.911928
 H    -0.453236     3.966851     2.317575
 C    -3.522908     2.512935    -1.373271
 O    -4.194325     1.542741    -2.010226
 C    -5.317361     1.844093    -2.788832
 H    -5.697549     0.883664    -3.158589
 H    -5.057509     2.485200    -3.648638
 H    -6.105631     2.337309    -2.194544
 C    -3.858534     3.867896    -1.502732
 H    -4.707184     4.169843    -2.114692
 C    -1.984583     4.479806    -0.096115
 H    -1.380583     5.248632     0.383305
 C    -3.094421     4.831195    -0.855914
 H    -3.362298     5.885292    -0.959159
 C    -3.259468    -1.738993    -1.573642
 H    -2.329531    -1.891941    -2.127688
 C    -4.512710    -0.492466     0.062318
 H    -4.578204     0.319420     0.791422
 C    -4.348818    -2.588254    -1.768563
 H    -4.292014    -3.417060    -2.476058
 C    -5.608417    -1.323728    -0.126188
 H    -6.530888    -1.176483     0.437915
 C    -5.518948    -2.369729    -1.048363
Cl    -6.883332    -3.412816    -1.286330
 C    -1.551574    -1.204328     1.860914
 H    -1.314848    -1.954365     1.100947
 C    -2.177376     1.046780     2.440390
 H    -2.465802     2.059415     2.154378
 C    -1.554905    -1.566104     3.201962
 H    -1.312140    -2.584259     3.506079
 C    -2.160710     0.705760     3.791477
 H    -2.404694     1.443617     4.557911
 C    -1.831057    -0.595407     4.161972
Cl    -1.724484    -1.003952     5.846316
 C     1.563497    -0.683482     2.788271
 O     1.487966     0.657650     2.863736
 C     1.492055     1.270230     4.125876
 H     1.446681     2.351213     3.946567
 H     0.617038     0.970138     4.725326
 H     2.414296     1.041503     4.686787
 C     1.503950    -2.668971     1.414900
 O     1.420209    -3.141874     0.161866
 C     1.437848    -4.521151    -0.091127
 H     1.379783    -4.628189    -1.180902
 H     0.572798    -5.027823     0.369217
 H     2.370183    -4.983326     0.274963
 C     1.493608    -3.482221     2.551060
 H     1.440150    -4.566567     2.462799
 C     1.573988    -1.494240     3.933434
 H     1.550823    -1.051541     4.927279
 C     1.551299    -2.876201     3.802456
 H     1.547246    -3.496390     4.701764
 C     4.212608    -1.810120    -0.001067
 H     4.013088    -1.986512     1.058476
 C     3.564982    -0.924389    -2.140286
 H     2.840224    -0.400256    -2.769303
 C     5.413126    -2.260206    -0.543936
 H     6.144168    -2.785057     0.073438
 C     4.763174    -1.361869    -2.696107
 H     4.986882    -1.188847    -3.749890
 C     5.681765    -2.034257    -1.892559
Cl     7.173300    -2.593865    -2.574656
 C     3.443002     1.567777     0.994516
 H     3.815229     0.807091     1.683551
 C     1.992361     2.235320    -0.807920
 H     1.197509     1.994922    -1.520969
 C     4.015572     2.834495     1.010329
 H     4.815497     3.080979     1.710477
 C     2.572497     3.501773    -0.822022
 H     2.245970     4.259104    -1.536592
 C     3.570510     3.797788     0.101960
Cl     4.270062     5.383229     0.129073
