 100
scf done:    -2386.941672
 C    -1.273420    -2.532516    -2.737340
 H    -0.862478    -3.528600    -2.967057
 H    -2.114037    -2.731167    -2.049768
 C    -1.778821    -1.881722    -4.019466
 H    -0.966056    -1.742744    -4.749831
 H    -2.561954    -2.484505    -4.518308
 H    -2.209904    -0.881789    -3.843655
Rh     0.191590    -1.268289    -1.834846
 O    -1.122015     1.242499    -0.151512
 C    -3.204933    -0.198452    -1.159510
 C    -1.661416    -1.167919     1.096138
 O     1.635450     0.364018     0.747363
 C     3.470231    -0.127545    -1.163763
 C     1.473381     1.974829    -1.397840
 P     1.677481     0.201158    -0.943028
 P    -1.486140    -0.353309    -0.532035
 C     1.445394    -2.317481    -2.709973
 O     2.220573    -3.002292    -3.211048
 C    -1.627829     2.046344     0.823910
 C    -1.197592     1.917923     2.147197
 H    -0.477244     1.139102     2.400071
 C    -2.505368     3.072829     0.466810
 H    -2.808252     3.167133    -0.577730
 C    -1.672839     2.803582     3.112290
 H    -1.335237     2.700434     4.146350
 C    -2.969792     3.955712     1.438709
 H    -3.655236     4.757747     1.154428
 C    -2.560828     3.821686     2.765608
 H    -2.926051     4.515156     3.525979
 H    -3.399868    -1.098907    -1.763639
 H    -3.145608     0.634132    -1.879182
 C    -4.315199     0.014367    -0.137909
 H    -4.407697    -0.891162     0.484037
 H    -4.057208     0.834230     0.553833
 C    -5.683073     0.316138    -0.758670
 H    -5.892579    -0.473060    -1.505271
 C    -6.768872     0.255416     0.309601
 H    -6.796564    -0.729423     0.801459
 H    -7.765227     0.446826    -0.117799
 H    -6.589962     1.013309     1.090606
 C    -5.706704     1.662609    -1.474416
 H    -6.692046     1.853360    -1.926513
 H    -4.961244     1.721106    -2.281965
 H    -5.500340     2.481661    -0.765204
 H    -2.391209    -0.610817     1.705984
 H    -0.681584    -1.077438     1.587451
 C    -2.058202    -2.634490     0.966753
 H    -2.932091    -2.732759     0.299716
 H    -1.241251    -3.185020     0.468537
 C    -2.399341    -3.300307     2.302609
 H    -3.227716    -2.721250     2.754669
 C    -2.895986    -4.722146     2.068532
 H    -3.766404    -4.741114     1.394078
 H    -3.190125    -5.205248     3.013093
 H    -2.106693    -5.340189     1.609424
 C    -1.228285    -3.285494     3.277530
 H    -1.506076    -3.754226     4.234211
 H    -0.875442    -2.267020     3.498661
 H    -0.371269    -3.842507     2.866948
 C     1.935301    -0.631030     1.617306
 C     2.227434    -0.243860     2.931054
 H     2.210628     0.820228     3.176239
 C     1.949233    -1.987283     1.271444
 H     1.669759    -2.286754     0.255625
 C     2.543885    -1.206602     3.884948
 H     2.773307    -0.894048     4.906699
 C     2.279791    -2.938148     2.235630
 H     2.293519    -3.994249     1.954694
 C     2.580530    -2.559043     3.542224
 H     2.837455    -3.311381     4.290626
 H     3.643387    -0.126041    -2.253850
 H     3.613572    -1.172032    -0.844766
 C     4.425914     0.807213    -0.434708
 H     4.451087     1.779271    -0.955295
 H     4.041504     1.014672     0.578686
 C     5.854309     0.268786    -0.304092
 H     6.191627    -0.046107    -1.309752
 C     6.789502     1.369514     0.183205
 H     6.790844     2.232158    -0.501448
 H     7.825514     1.007662     0.272225
 H     6.477859     1.732839     1.176889
 C     5.918011    -0.942366     0.621496
 H     6.946311    -1.327624     0.699741
 H     5.282854    -1.771349     0.275246
 H     5.579490    -0.674415     1.636415
 H     0.472067     2.033001    -1.848340
 H     2.198917     2.151408    -2.209969
 C     1.586463     3.011555    -0.286154
 H     1.043418     2.643095     0.594029
 H     2.636833     3.125174     0.033205
 C     1.018596     4.379673    -0.668615
 H    -0.007786     4.208501    -1.044798
 C     0.909827     5.267455     0.565415
 H     0.269636     4.802756     1.331743
 H     0.479661     6.250330     0.316928
 H     1.902300     5.442550     1.013989
 C     1.821066     5.055400    -1.774099
 H     1.387748     6.030868    -2.044758
 H     1.856678     4.445678    -2.690023
 H     2.860529     5.232282    -1.449116
