  58
scf done:    -1837.003847
 C    -4.070422    -0.867281     0.039636
 H    -4.608726    -1.641173    -0.529885
 H    -4.284891    -1.100085     1.094960
 C    -4.639494     0.498264    -0.326555
 H    -5.737368     0.542173    -0.195527
 H    -4.223089     1.313361     0.290079
 H    -4.432617     0.761959    -1.376505
Rh    -1.974031    -0.929258    -0.350109
 O    -0.572946     1.091099     2.048760
 C    -2.945483     0.267489     2.930637
 C    -0.680891    -1.429826     2.847224
 O     1.293606    -0.723824     0.380514
 C     0.861071    -2.498341    -1.649538
 C     0.798173     0.284781    -2.132003
 P     0.232612    -0.948324    -0.910362
 P    -1.585628    -0.233435     1.822502
 C    -2.464678    -1.960378    -1.808299
 O    -2.773786    -2.667460    -2.660825
 C    -0.313258     2.012077     1.086696
 C    -1.225187     2.350456     0.084449
 H    -2.196046     1.851766     0.032215
 C     0.926698     2.654190     1.130246
 H     1.632087     2.369245     1.912722
 C    -0.886767     3.314655    -0.864185
 H    -1.610967     3.559272    -1.646053
 C     1.245912     3.617751     0.179837
 H     2.222905     4.107927     0.227274
 C     0.349529     3.967291    -0.840283
 C     0.695500     5.025550    -1.847543
 H     0.096677     4.920450    -2.763567
 H     1.758288     4.983066    -2.129341
 H     0.506486     6.035313    -1.446003
 H    -3.579307    -0.600361     3.160742
 H    -2.520984     0.674567     3.859402
 H    -3.567238     1.032091     2.445347
 H    -0.475311    -1.012593     3.843897
 H    -1.285419    -2.344041     2.935876
 H     0.261549    -1.661474     2.335008
 C     2.656029    -0.782020     0.288306
 C     3.395980     0.344986    -0.073123
 H     2.871343     1.273200    -0.302998
 C     3.318985    -1.967537     0.610789
 H     2.732127    -2.841633     0.900488
 C     4.786132     0.274075    -0.117289
 H     5.354649     1.163782    -0.402573
 C     4.708865    -2.022155     0.563289
 H     5.214753    -2.957977     0.817066
 C     5.470386    -0.905261     0.198392
 C     6.970534    -0.962583     0.181703
 H     7.394757    -0.223765    -0.513386
 H     7.333238    -1.957662    -0.114998
 H     7.386483    -0.748930     1.180696
 H     1.938612    -2.449729    -1.865919
 H     0.654588    -3.336377    -0.969083
 H     0.308178    -2.674820    -2.584202
 H     0.632167     1.295529    -1.733902
 H     1.855993     0.151065    -2.401655
 H     0.173037     0.163228    -3.029288
