 112
scf done:    -3440.340633
 C    -1.631653     0.186044    -3.166793
 H    -1.844338    -0.757069    -3.697379
 H    -2.596630     0.495215    -2.732815
 C    -1.145711     1.241372    -4.149872
 H    -0.241920     0.916297    -4.689803
 H    -1.913759     1.489825    -4.907707
 H    -0.881667     2.187188    -3.645301
Rh    -0.171457    -0.047535    -1.660665
 O    -2.173065     0.993775     0.955384
 C    -3.509900    -0.755473    -0.760763
 C    -1.716584    -1.567357     1.233274
 O     2.592065    -1.315174    -0.316325
 C     3.021118     1.332505    -0.594061
 C     1.249599     0.314892     1.538155
 P     1.688267     0.084339    -0.228764
 P    -1.847438    -0.291151    -0.082580
 C     0.727774    -1.083020    -2.878980
 O     1.156736    -1.962380    -3.500927
 C    -2.419059     2.267296     0.611348
 C    -2.266185     2.781060    -0.681398
 H    -1.928251     2.126563    -1.487555
 C    -2.857645     3.108925     1.642212
 H    -2.983935     2.674732     2.635332
 C    -2.541831     4.124004    -0.926451
 H    -2.415460     4.512252    -1.940430
 C    -3.134044     4.449015     1.382892
 H    -3.479216     5.093734     2.195704
 C    -2.976257     4.968605     0.096334
 H    -3.194167     6.019048    -0.107984
 C    -3.492778    -1.939407    -1.522744
 O    -2.323563    -2.600401    -1.502276
 C    -2.026523    -3.546904    -2.488744
 H    -0.954151    -3.758744    -2.401952
 H    -2.597629    -4.480589    -2.342994
 H    -2.226600    -3.150580    -3.498153
 C    -4.716374    -0.035996    -0.694271
 O    -4.746194     1.072561     0.066093
 C    -5.779464     2.001803    -0.095137
 H    -5.484779     2.888633     0.481192
 H    -6.741696     1.622075     0.292451
 H    -5.907497     2.288381    -1.152912
 C    -5.843700    -0.471588    -1.407993
 H    -6.774794     0.091608    -1.358936
 C    -4.609509    -2.379360    -2.238022
 H    -4.568098    -3.293520    -2.829364
 C    -5.777872    -1.629503    -2.173039
 H    -6.661620    -1.958523    -2.725048
 C    -2.668040    -1.605336     2.278870
 O    -3.657290    -0.704463     2.223127
 C    -4.664408    -0.693970     3.187387
 H    -5.351331     0.111326     2.897557
 H    -5.219761    -1.648232     3.216066
 H    -4.267405    -0.481970     4.196027
 C    -0.752474    -2.594232     1.178031
 O     0.082003    -2.592193     0.136582
 C     0.932729    -3.680423    -0.089649
 H     1.410835    -3.493627    -1.057585
 H     0.364657    -4.626319    -0.129175
 H     1.718354    -3.746882     0.678899
 C    -0.695786    -3.579018     2.176394
 H     0.057243    -4.363616     2.129326
 C    -2.590563    -2.569596     3.292094
 H    -3.311267    -2.576770     4.108444
 C    -1.600108    -3.542350     3.228009
 H    -1.545309    -4.303985     4.010281
 C     3.896108    -1.492517     0.002388
 C     4.529841    -0.835647     1.060862
 H     3.976147    -0.115757     1.664293
 C     4.607490    -2.408058    -0.778789
 H     4.090212    -2.887770    -1.611976
 C     5.869781    -1.106292     1.330372
 H     6.361635    -0.587272     2.157284
 C     5.943302    -2.675607    -0.493301
 H     6.491641    -3.393558    -1.108542
 C     6.583121    -2.026335     0.562906
 H     7.632773    -2.232845     0.783224
 C     3.593641     2.263412     0.301907
 O     3.262940     2.159728     1.602066
 C     3.859006     2.985172     2.559586
 H     3.424743     2.691298     3.524004
 H     4.953937     2.847801     2.591849
 H     3.640178     4.052746     2.382572
 C     3.520351     1.335645    -1.917394
 O     3.111456     0.332187    -2.703889
 C     3.515448     0.273118    -4.044171
 H     3.035436    -0.617358    -4.466305
 H     4.610897     0.171852    -4.129432
 H     3.185624     1.162773    -4.607019
 C     4.423424     2.309441    -2.363728
 H     4.772847     2.309687    -3.394646
 C     4.500659     3.236165    -0.137312
 H     4.915249     3.960105     0.562240
 C     4.889717     3.261505    -1.469816
 H     5.594247     4.023662    -1.811169
 C     0.640978     1.554550     1.801882
 O     0.591173     2.375582     0.735087
 C     0.522278     3.766153     0.916832
 H     0.696846     4.213950    -0.068783
 H    -0.465388     4.085419     1.281208
 H     1.303600     4.104827     1.617436
 C     1.355444    -0.612738     2.584872
 O     1.972802    -1.783045     2.325813
 C     2.365636    -2.598458     3.392322
 H     2.964290    -3.409748     2.957671
 H     1.498207    -3.033666     3.917025
 H     2.989072    -2.044797     4.115670
 C     0.852750    -0.296107     3.856228
 H     0.910309    -1.021814     4.665922
 C     0.167711     1.892259     3.067179
 H    -0.296344     2.861647     3.245750
 C     0.269297     0.945103     4.082280
 H    -0.119710     1.177676     5.076610
