  84
scf done:    -2452.969072
 C    -1.213173     0.910240    -3.276610
 H    -0.776413     0.835202    -4.284341
 H    -2.174398     0.377446    -3.315730
 C    -1.421785     2.371478    -2.914386
 H    -1.984034     2.914870    -3.697272
 H    -1.998264     2.488063    -1.981616
 H    -0.466238     2.910059    -2.786141
Rh     0.094034     0.172231    -1.807205
 C    -1.642922     0.886187     1.299210
 C    -3.404121     0.299354    -0.870194
 C    -1.890530    -1.802716     0.189198
 C     1.833580    -1.522725     0.841562
 C     3.536381     0.030492    -0.862317
 C     1.893407     1.420492     0.878328
 P     1.804419    -0.041936    -0.231289
 P    -1.687234    -0.040819    -0.290172
 C     0.975308    -0.673200    -3.177051
 O     1.410476    -1.362095    -3.993613
 C    -1.762930     0.306097     2.564597
 H    -1.906854    -0.769898     2.665892
 C    -1.448750     2.271507     1.206683
 H    -1.323106     2.727696     0.220111
 C    -1.680477     1.102800     3.706323
 H    -1.757387     0.640254     4.693744
 C    -1.410379     3.088054     2.338898
 C    -1.286896     4.577902     2.216298
 H    -1.011071     4.875494     1.195646
 H    -2.242170     5.070026     2.463189
 H    -0.525948     4.974685     2.904341
 C    -1.512333     2.478748     3.596219
 H    -1.459285     3.094732     4.498221
 C    -3.925221    -0.549701    -1.857550
 C    -4.187422     1.361158    -0.409132
 C    -5.973928     0.727798    -1.910838
 C    -5.464774     1.573583    -0.928931
 C    -5.200701    -0.338478    -2.371329
 H    -3.325496    -1.390097    -2.217639
 H    -5.592616    -1.010316    -3.138676
 H    -6.974756     0.895418    -2.315868
 H    -6.066560     2.405863    -0.555691
 H    -3.807760     2.023322     0.371295
 C    -0.982012    -2.753269    -0.282478
 C    -2.977091    -2.221400     0.971292
 C    -2.188885    -4.502466     0.863307
 C    -3.118811    -3.563236     1.314339
 C    -1.128577    -4.097418     0.056168
 H    -0.163723    -2.419023    -0.925559
 H    -0.405964    -4.827720    -0.313715
 H    -2.303459    -5.555977     1.130556
 H    -3.966933    -3.880535     1.926122
 H    -3.725199    -1.494854     1.298618
 C     2.480936    -2.682751     0.394488
 H     3.083424    -2.659276    -0.516714
 C     1.047557    -1.587343     1.996116
 H     0.513280    -0.697568     2.333429
 C     2.355571    -3.867173     1.114638
 H     2.871573    -4.766445     0.769089
 C     0.898953    -2.775971     2.717442
 C    -0.017262    -2.834870     3.904198
 H    -0.067820    -1.867876     4.425152
 H    -1.039877    -3.090690     3.578314
 H     0.299842    -3.601378     4.625973
 C     1.573697    -3.914626     2.267208
 H     1.474597    -4.853164     2.819376
 C     3.787171     0.549811    -2.134502
 C     4.618887    -0.317256    -0.042427
 C     6.166440     0.337850    -1.777637
 C     5.924533    -0.171057    -0.500515
 C     5.096541     0.702715    -2.590531
 H     2.945639     0.838677    -2.768570
 H     5.277294     1.106051    -3.589651
 H     7.192322     0.451885    -2.136292
 H     6.760124    -0.452392     0.145049
 H     4.438677    -0.708383     0.961931
 C     1.651769     2.656331     0.263194
 C     2.288671     1.392236     2.218160
 C     2.200006     3.807069     2.311292
 C     2.424847     2.581422     2.934001
 C     1.818911     3.842607     0.969993
 H     1.337016     2.676660    -0.785845
 H     1.644075     4.800119     0.473610
 H     2.324443     4.737274     2.871150
 H     2.724408     2.547535     3.984290
 H     2.500391     0.440329     2.708903
