 104
scf done:    -2315.125532
 C     1.480990     1.047589    -3.097564
 H     1.721558     2.124806    -3.132045
 H     2.438238     0.543258    -2.891824
 C     0.968569     0.602288    -4.462947
 H     0.077739     1.170078    -4.775687
 H     1.728964     0.730940    -5.256745
 H     0.677050    -0.461608    -4.473294
Rh     0.079061     0.656477    -1.541903
 C     1.792472    -2.184503    -0.015042
 C     3.466897     0.115242    -0.537748
 C     1.520046     0.241604     1.557487
 C    -1.693532    -1.578437     0.608482
 C    -1.901746     1.214845     1.382794
 C    -3.296640     0.250713    -0.920880
 P    -1.649062     0.121858    -0.085274
 P     1.717175    -0.350017    -0.179647
 C    -0.909249     1.980335    -2.351449
 O    -1.471000     2.893388    -2.775949
 C     1.593644    -2.808349     1.224324
 H     1.385283    -2.212596     2.112324
 C     1.995168    -2.987851    -1.159909
 C     2.175699    -2.400887    -2.527498
 H     3.221767    -2.102945    -2.706636
 H     1.556988    -1.501026    -2.664601
 H     1.908185    -3.128169    -3.306547
 C     1.627689    -4.192555     1.355558
 H     1.463879    -4.647272     2.334832
 C     2.018246    -4.379251    -1.007411
 H     2.171662    -4.999405    -1.895154
 C     1.848327    -4.984687     0.233573
 H     1.873425    -6.073689     0.319564
 H     3.714263    -0.292264    -1.529603
 H     4.120938    -0.392722     0.187113
 C     3.650488     1.628796    -0.537853
 H     2.779589     2.087485    -1.035387
 H     3.642638     2.008809     0.499691
 C     4.927677     2.109653    -1.227999
 H     4.898294     1.725647    -2.265126
 C     4.949245     3.631679    -1.296301
 H     4.058943     4.020480    -1.814229
 H     5.839271     3.998359    -1.830928
 H     4.965391     4.069921    -0.284050
 C     6.186342     1.570292    -0.557983
 H     7.094178     1.928344    -1.068012
 H     6.218125     0.470149    -0.561809
 H     6.242746     1.903133     0.492678
 H     0.617853    -0.263485     1.939094
 H     1.246347     1.302686     1.453776
 C     2.684291     0.067712     2.525549
 H     3.132815    -0.932350     2.411624
 H     3.485303     0.784079     2.274983
 C     2.293626     0.261799     3.993541
 H     1.511245    -0.486727     4.226793
 C     3.486783    -0.012152     4.901131
 H     3.894562    -1.021645     4.736204
 H     3.212158     0.071939     5.963970
 H     4.297889     0.709897     4.709144
 C     1.709532     1.645105     4.259986
 H     1.454552     1.769785     5.323615
 H     0.793670     1.830687     3.678489
 H     2.435502     2.433011     3.997310
 C    -1.837315    -1.807770     1.982970
 H    -1.943547    -0.966091     2.669350
 C    -1.565462    -2.680788    -0.267754
 C    -1.424076    -2.510717    -1.751402
 H    -0.857472    -1.592459    -2.004565
 H    -2.410012    -2.421395    -2.237135
 H    -0.909937    -3.373143    -2.196909
 C    -1.860764    -3.100283     2.501887
 H    -1.975890    -3.253685     3.577548
 C    -1.596381    -3.969486     0.273957
 H    -1.485053    -4.823197    -0.399431
 C    -1.744799    -4.186669     1.640473
 H    -1.759219    -5.206588     2.031996
 H    -1.139525     0.952933     2.132202
 H    -2.883221     1.001148     1.834485
 C    -1.756997     2.685824     1.015727
 H    -0.778853     2.824371     0.524034
 H    -2.508495     2.966402     0.255610
 C    -1.874793     3.649065     2.198776
 H    -1.126561     3.338440     2.953605
 C    -1.531741     5.066796     1.756508
 H    -0.524101     5.117498     1.315927
 H    -1.569423     5.772539     2.600778
 H    -2.244360     5.420844     0.993165
 C    -3.250830     3.600536     2.854101
 H    -3.318847     4.314414     3.689539
 H    -3.487399     2.603137     3.254606
 H    -4.037192     3.864042     2.126450
 H    -3.180529    -0.210314    -1.914280
 H    -3.423798     1.328374    -1.112667
 C    -4.488188    -0.337236    -0.183896
 H    -4.331944    -1.421687    -0.059495
 H    -4.546310     0.073436     0.840742
 C    -5.836327    -0.103270    -0.872505
 H    -5.750809    -0.485224    -1.907487
 C    -6.931981    -0.896073    -0.169077
 H    -6.697760    -1.971679    -0.142843
 H    -7.903943    -0.773455    -0.671611
 H    -7.051863    -0.556571     0.873523
 C    -6.199209     1.376181    -0.946152
 H    -7.178134     1.520992    -1.428541
 H    -5.463136     1.959564    -1.519270
 H    -6.259314     1.813011     0.065440
