 100
scf done:    -2910.740280
 C    -1.371382     1.627757    -2.734016
 H    -1.362689     1.396286    -3.810660
 H    -2.424477     1.541357    -2.424659
 C    -0.864648     3.038840    -2.485775
 H     0.166096     3.170023    -2.854480
 H    -1.491879     3.798260    -2.990921
 H    -0.868207     3.293428    -1.412484
Rh    -0.037311     0.453668    -1.600695
 C    -2.540221     1.824235     0.346225
 C    -3.177336    -0.824995    -0.967149
 C    -1.728515    -0.736022     1.416352
 C     2.159388    -1.946401     0.067102
 C     3.419503     0.386108    -0.872005
 C     1.624441     0.835079     1.347500
 P     1.773590    -0.140015    -0.201332
 P    -1.864074     0.187308    -0.175492
 C     0.594165    -0.125868    -3.220776
 O     0.795750    -0.652316    -4.232679
 C    -1.626405     2.518239     1.158455
 H    -0.698054     2.024150     1.451807
 C    -3.712869     2.483697    -0.080357
 C    -4.770477     1.884802    -0.963165
 H    -5.429189     1.221699    -0.383520
 H    -4.354710     1.288239    -1.783795
 H    -5.391205     2.679020    -1.400188
 C    -1.859295     3.816310     1.592682
 H    -1.124624     4.311400     2.231585
 C    -3.917007     3.802935     0.357255
 H    -4.819159     4.321861     0.021492
 C    -3.021197     4.467407     1.185646
 H    -3.224586     5.494342     1.498921
 C    -2.941891    -1.361664    -2.232001
 H    -2.013848    -1.075308    -2.735079
 C    -4.345839    -1.202662    -0.275300
 O    -4.545049    -0.632603     0.928636
 C    -5.555814    -1.111836     1.768081
 H    -6.562096    -0.902775     1.363703
 H    -5.440022    -0.586028     2.724310
 H    -5.456762    -2.196989     1.942561
 C    -3.840547    -2.249941    -2.821350
 H    -3.637346    -2.655021    -3.814656
 C    -5.242144    -2.106002    -0.853966
 H    -6.147521    -2.402677    -0.323660
 C    -4.985825    -2.621571    -2.124718
 H    -5.697420    -3.322822    -2.568105
 C    -2.064374    -0.224405     2.668012
 H    -2.463711     0.788380     2.736647
 C    -1.262863    -2.066589     1.336976
 O    -1.032871    -2.538713     0.103739
 C    -0.804115    -3.908178    -0.083771
 H     0.145862    -4.229605     0.372614
 H    -0.743879    -4.063933    -1.167029
 H    -1.636260    -4.506868     0.326152
 C    -1.901999    -0.979466     3.829855
 H    -2.168876    -0.552155     4.798898
 C    -1.081725    -2.823833     2.500305
 H    -0.699239    -3.842631     2.437067
 C    -1.394986    -2.272432     3.742924
 H    -1.250618    -2.871210     4.645731
 C     2.042831    -2.597166    -1.176826
 H     1.659453    -2.030514    -2.027249
 C     2.626770    -2.693395     1.171942
 C     2.816100    -2.185917     2.572421
 H     1.915226    -2.370749     3.180176
 H     3.032787    -1.116286     2.600974
 H     3.644110    -2.726060     3.054462
 C     2.396086    -3.925968    -1.363979
 H     2.304534    -4.377600    -2.354277
 C     2.946643    -4.047612     0.963761
 H     3.308121    -4.624123     1.820257
 C     2.850589    -4.665617    -0.275771
 H     3.130006    -5.715958    -0.389031
 C     3.500066     0.888530    -2.169266
 H     2.572631     0.988270    -2.735670
 C     4.605632     0.309829    -0.114338
 O     4.495363    -0.136929     1.152761
 C     5.635462    -0.203020     1.960367
 H     6.387068    -0.900918     1.552313
 H     5.303671    -0.571150     2.939238
 H     6.100734     0.789242     2.091779
 C     4.712085     1.282896    -2.733866
 H     4.738820     1.667125    -3.755535
 C     5.826539     0.703095    -0.673355
 H     6.746241     0.638379    -0.092157
 C     5.875790     1.183143    -1.981055
 H     6.837631     1.483971    -2.403933
 C     1.091690     0.345630     2.538966
 H     0.784692    -0.695702     2.601114
 C     1.877048     2.226093     1.260200
 O     2.222044     2.689228     0.047824
 C     2.370794     4.062780    -0.170072
 H     1.439269     4.609796     0.056137
 H     2.606025     4.179305    -1.235272
 H     3.197623     4.484262     0.427727
 C     0.913082     1.166062     3.653906
 H     0.494910     0.744371     4.569190
 C     1.720952     3.048322     2.379210
 H     1.942922     4.113384     2.311367
 C     1.251799     2.511050     3.578307
 H     1.126425     3.163094     4.446100
