 104
scf done:    -2839.070987
 C    -1.215926    -1.941914     3.055475
 H    -1.238958    -1.491340     4.063260
 H    -2.243546    -1.864928     2.670939
 C    -0.826599    -3.411616     3.159604
 H     0.144770    -3.554237     3.659933
 H    -1.574145    -3.993018     3.730322
 H    -0.747806    -3.893372     2.171286
Rh     0.111450    -0.782093     1.847841
 O    -3.206237    -0.727525     0.813612
 C    -2.309596     1.485629     1.907587
 C    -1.768518     0.839809    -0.918925
 O     0.917738     1.935323     0.195494
 C     3.218221     0.872044     1.324624
 C     1.983874    -0.208844    -1.110476
 P     1.568315     0.412582     0.579737
 P    -1.757839     0.110099     0.809941
 C     1.339252    -1.155479     3.187435
 O     2.071009    -1.299500     4.062093
 C    -3.412413    -1.921212     0.180406
 C    -2.397169    -2.855718    -0.024052
 H    -1.388944    -2.643688     0.338062
 C    -4.714066    -2.190583    -0.245466
 H    -5.485615    -1.437613    -0.080055
 C    -2.683805    -4.048928    -0.683722
 H    -1.880829    -4.771996    -0.847138
 C    -4.989011    -3.387476    -0.897121
 H    -6.006466    -3.587799    -1.241362
 C    -3.976225    -4.320113    -1.127351
 H    -4.196142    -5.255574    -1.646223
 H    -2.568030     0.970674     2.845838
 H    -1.399095     2.066637     2.107164
 C    -3.442308     2.321790     1.396631
 C    -4.751478     1.833006     1.490715
 H    -4.914920     0.861532     1.960894
 C    -3.211405     3.575287     0.790685
 C    -1.836808     4.181286     0.729479
 H    -1.086853     3.500732     0.300958
 H    -1.476449     4.444694     1.738105
 H    -1.838564     5.101054     0.129117
 C    -5.827451     2.549037     0.976302
 H    -6.840014     2.147118     1.057745
 C    -4.305787     4.276416     0.269400
 H    -4.131623     5.244783    -0.207550
 C    -5.601948     3.774197     0.352090
 H    -6.435398     4.344656    -0.064576
 H    -1.949841     1.914475    -0.785481
 H    -0.749222     0.736993    -1.304940
 C    -2.791534     0.278525    -1.862110
 C    -4.072046     0.841541    -1.883693
 H    -4.290774     1.688198    -1.229596
 C    -2.497555    -0.808352    -2.709780
 C    -1.126699    -1.416478    -2.766035
 H    -0.713177    -1.617093    -1.767511
 H    -0.417721    -0.753941    -3.292120
 H    -1.142026    -2.373104    -3.304952
 C    -5.068382     0.332611    -2.710159
 H    -6.062223     0.786532    -2.705918
 C    -3.512850    -1.310471    -3.530116
 H    -3.292668    -2.164453    -4.175969
 C    -4.789260    -0.755558    -3.533081
 H    -5.564193    -1.174243    -4.179668
 C     1.583143     2.973668    -0.386757
 C     1.760143     3.032257    -1.771554
 H     1.365329     2.232590    -2.398862
 C     2.036528     4.020636     0.420747
 H     1.852585     3.974675     1.496116
 C     2.431609     4.114607    -2.335570
 H     2.573831     4.152742    -3.418093
 C     2.703912     5.100735    -0.152783
 H     3.061839     5.912897     0.484194
 C     2.914374     5.146392    -1.530711
 H     3.441636     5.991347    -1.978344
 H     3.092052     1.918522     1.641059
 H     3.287996     0.282665     2.247054
 C     4.469032     0.727998     0.507785
 C     4.912504     1.790604    -0.290422
 H     4.327071     2.712273    -0.325284
 C     5.229685    -0.459965     0.563946
 C     4.808207    -1.622708     1.413342
 H     3.809621    -1.991568     1.132921
 H     4.767624    -1.355362     2.481773
 H     5.509179    -2.460718     1.304396
 C     6.091731     1.700231    -1.025517
 H     6.417745     2.545246    -1.636182
 C     6.412428    -0.530769    -0.180926
 H     7.004303    -1.448865    -0.137101
 C     6.848191     0.532264    -0.968076
 H     7.777144     0.445849    -1.536687
 H     1.054253    -0.084416    -1.689517
 H     2.733870     0.460413    -1.550670
 C     2.434113    -1.645343    -1.174720
 C     1.786596    -2.630377    -0.418520
 H     0.969455    -2.331539     0.255451
 C     3.491905    -2.019850    -2.029485
 C     4.171836    -1.022838    -2.921356
 H     4.614195    -0.193252    -2.350119
 H     3.463807    -0.584264    -3.643660
 H     4.980383    -1.497403    -3.493576
 C     2.188155    -3.962531    -0.461007
 H     1.671450    -4.704165     0.152698
 C     3.888254    -3.361571    -2.053624
 H     4.715037    -3.651793    -2.707742
 C     3.254545    -4.328918    -1.276753
 H     3.591182    -5.367701    -1.316306
