  96
scf done:    -3006.881678
 C    -0.555081     3.210189    -2.467344
 H    -0.031777     3.727033    -3.286509
 H    -1.560698     2.995762    -2.859727
 C    -0.613396     4.129704    -1.256025
 H     0.393414     4.419779    -0.918965
 H    -1.165060     5.065888    -1.466455
 H    -1.097772     3.661195    -0.381554
Rh     0.468127     1.484995    -1.824777
 C    -1.635468     0.588860     0.992979
 C    -3.064861     1.499764    -1.374079
 C    -1.785799    -1.119374    -1.435744
 C     1.820175    -1.761364    -0.724166
 C     3.699787     0.170219    -1.435839
 C     2.144850     0.530503     1.020162
 P     1.950124     0.068580    -0.758177
 P    -1.497923     0.631591    -0.837026
 C     1.531057     1.718253    -3.300236
 O     2.118449     1.769380    -4.291719
 C    -1.141829    -0.490777     1.739381
 H    -0.720995    -1.363761     1.239033
 C    -2.133459     1.701199     1.681179
 H    -2.467741     2.580010     1.124322
 C    -1.201190    -0.464353     3.130340
 H    -0.826778    -1.317806     3.700849
 C    -2.202831     1.742005     3.077584
 C    -2.775066     2.942895     3.773206
 H    -3.876809     2.897281     3.800660
 H    -2.425828     3.012218     4.813190
 H    -2.501380     3.873992     3.255044
 C    -1.737810     0.635859     3.796671
 H    -1.783251     0.643359     4.888979
 H    -2.998096     2.527239    -0.988419
 H    -2.932803     1.586404    -2.462073
 C    -4.386433     0.870417    -1.066593
 C    -4.998436     0.026914    -2.005205
 H    -4.524026    -0.128853    -2.977690
 C    -5.049769     1.082698     0.150791
 H    -4.612511     1.745966     0.897587
 C    -6.201351    -0.618194    -1.733049
 H    -6.673156    -1.280851    -2.460424
 C    -6.255226     0.448902     0.439396
 H    -6.771197     0.609143     1.387717
 C    -6.812911    -0.405075    -0.504530
 F    -7.962087    -1.019070    -0.230545
 H    -2.485524    -0.992459    -2.277627
 H    -0.829628    -1.420064    -1.882453
 C    -2.265033    -2.205870    -0.511893
 C    -1.500582    -3.372424    -0.391651
 H    -0.582364    -3.472389    -0.971303
 C    -3.437237    -2.108817     0.248739
 H    -4.048466    -1.209863     0.196710
 C    -1.876802    -4.407521     0.461027
 H    -1.276583    -5.314725     0.553487
 C    -3.831286    -3.134168     1.102267
 H    -4.741994    -3.055299     1.698514
 C    -3.042213    -4.273138     1.203247
 F    -3.409831    -5.253865     2.028802
 C     1.689302    -2.396578    -1.969476
 H     1.574161    -1.792913    -2.875362
 C     1.938473    -2.542479     0.425747
 H     2.053727    -2.066934     1.402362
 C     1.724627    -3.784315    -2.050501
 H     1.640369    -4.275947    -3.022629
 C     1.943065    -3.943575     0.363281
 C     2.032478    -4.753499     1.622433
 H     2.809001    -4.361167     2.296267
 H     1.076591    -4.722432     2.171347
 H     2.261845    -5.807248     1.411611
 C     1.853929    -4.552599    -0.891041
 H     1.874883    -5.643328    -0.962244
 H     3.634899    -0.275074    -2.440179
 H     3.915768     1.237282    -1.587984
 C     4.747954    -0.494509    -0.602024
 C     5.461282     0.229927     0.363390
 H     5.283752     1.303183     0.473398
 C     5.008692    -1.867198    -0.721645
 H     4.470001    -2.455395    -1.467836
 C     6.397286    -0.386937     1.189772
 H     6.956794     0.174595     1.939937
 C     5.940593    -2.499390     0.095863
 H     6.147944    -3.567047     0.004476
 C     6.622066    -1.750121     1.046993
 F     7.513779    -2.350730     1.834410
 H     1.358564    -0.009969     1.565231
 H     3.114839     0.156443     1.390188
 C     1.981017     2.003664     1.282989
 C     2.672908     2.982983     0.556906
 H     3.342707     2.695978    -0.254357
 C     1.117506     2.429262     2.297899
 H     0.559696     1.686853     2.871480
 C     2.519248     4.337796     0.837841
 H     3.052982     5.101804     0.270190
 C     0.945671     3.779941     2.589047
 H     0.268128     4.111082     3.378100
 C     1.652518     4.720808     1.853202
 F     1.492090     6.016523     2.120899
