 110
scf done:    -3290.123158
 C    -1.562107     0.428592    -3.120981
 H    -1.381145    -0.195750    -4.009886
 H    -2.523822     0.073693    -2.718861
 C    -1.666196     1.895933    -3.514770
 H    -0.750752     2.251953    -4.015420
 H    -2.506203     2.081434    -4.211533
 H    -1.831130     2.549633    -2.642073
Rh     0.052754     0.205643    -1.731547
 C    -2.793267     1.524071    -0.202490
 O    -2.728366    -1.119585    -0.356456
 O    -1.201328    -0.132256     1.353212
 C     1.836892    -0.973476     1.138081
 O     3.215567    -0.126861    -1.062027
 O     2.182234     1.581954     0.479619
 P     1.776357     0.168536    -0.288071
 P    -1.642523     0.103000    -0.223359
 C     1.109442    -0.169685    -3.232060
 O     1.712253    -0.498290    -4.149372
 C    -2.275689     2.717674     0.348819
 O    -1.080902     2.602610     0.949700
 C    -0.530514     3.695718     1.638258
 H    -1.219149     4.057763     2.421396
 H     0.389939     3.324486     2.100392
 H    -0.273982     4.520783     0.954380
 C    -4.038403     1.584578    -0.867692
 O    -4.507754     0.465039    -1.439587
 C    -5.627698     0.525938    -2.278981
 H    -5.753911    -0.482503    -2.692593
 H    -5.474687     1.238644    -3.107272
 H    -6.542563     0.802141    -1.726845
 C    -4.742577     2.795929    -0.935711
 H    -5.705997     2.843969    -1.440107
 C    -2.977170     3.924352     0.278222
 H    -2.562979     4.835957     0.705471
 C    -4.208218     3.943401    -0.365815
 H    -4.764578     4.881397    -0.432063
 C    -2.619933    -2.363874    -0.906079
 C    -1.503687    -2.811672    -1.607074
 H    -0.655509    -2.130317    -1.753979
 C    -3.733418    -3.193593    -0.686699
 C    -4.890282    -2.680693     0.114319
 H    -4.591433    -2.492665     1.159238
 H    -5.237820    -1.713510    -0.276366
 H    -5.723035    -3.397315     0.113586
 C    -1.492917    -4.109460    -2.116384
 H    -0.620726    -4.455661    -2.676654
 C    -3.690265    -4.488213    -1.208107
 H    -4.548380    -5.146510    -1.045708
 C    -2.583923    -4.952076    -1.920516
 H    -2.577653    -5.968427    -2.320726
 C    -2.048445    -0.405164     2.395829
 C    -2.704233     0.644268     3.043092
 H    -2.553402     1.658729     2.678976
 C    -2.181055    -1.730584     2.840399
 C    -1.473238    -2.863938     2.165817
 H    -2.158981    -3.435466     1.520821
 H    -0.650843    -2.505556     1.536499
 H    -1.057322    -3.559628     2.908130
 C    -3.520295     0.387114     4.139996
 H    -4.032619     1.212521     4.639739
 C    -3.004441    -1.957332     3.950765
 H    -3.115762    -2.982958     4.314208
 C    -3.674116    -0.921336     4.595599
 H    -4.310083    -1.134568     5.457840
 C     1.601010    -0.644783     2.489916
 O     1.348842     0.636385     2.799713
 C     0.899115     0.952334     4.089158
 H     0.658466     2.022816     4.077834
 H    -0.011366     0.387654     4.350286
 H     1.675768     0.773450     4.852973
 C     2.018333    -2.332678     0.803593
 O     2.125614    -2.594387    -0.511459
 C     2.230706    -3.920698    -0.952391
 H     2.241757    -3.880072    -2.048640
 H     1.367063    -4.523233    -0.624511
 H     3.166420    -4.388454    -0.602443
 C     2.073135    -3.327182     1.783636
 H     2.243267    -4.368435     1.516145
 C     1.633146    -1.647249     3.470541
 H     1.460585    -1.399467     4.516160
 C     1.887619    -2.963888     3.111206
 H     1.923564    -3.731755     3.887594
 C     4.389598    -0.559020    -0.514427
 C     4.803922    -0.201064     0.768639
 H     4.180801     0.460515     1.369297
 C     5.179010    -1.385999    -1.331610
 C     4.721512    -1.718950    -2.717201
 H     3.692282    -2.104011    -2.710741
 H     4.700929    -0.821004    -3.354717
 H     5.382544    -2.460963    -3.185746
 C     6.011511    -0.689548     1.264568
 H     6.329646    -0.411340     2.272074
 C     6.385758    -1.855878    -0.808501
 H     7.009833    -2.502072    -1.432319
 C     6.804297    -1.521479     0.479395
 H     7.751286    -1.906691     0.864027
 C     2.084866     2.847838    -0.021795
 C     1.293019     3.192684    -1.116331
 H     0.731502     2.408111    -1.644528
 C     2.806217     3.825659     0.686298
 C     3.654476     3.425983     1.854754
 H     4.005708     4.306857     2.409558
 H     3.100045     2.763896     2.537098
 H     4.538267     2.857700     1.521926
 C     1.201333     4.524573    -1.513870
 H     0.572803     4.781571    -2.369850
 C     2.691973     5.153344     0.268230
 H     3.244151     5.922644     0.815441
 C     1.897091     5.512464    -0.820677
 H     1.827161     6.558594    -1.127015
