 100
scf done:    -2910.907056
 C     1.369910    -2.417983    -2.413778
 H     1.463814    -2.394131    -3.505579
 H     2.375575    -2.457691    -1.976156
 C     0.428113    -3.482503    -1.891754
 H     0.039937    -4.151934    -2.673985
 H     0.865953    -4.085877    -1.082586
 H    -0.509551    -3.033519    -1.437310
Rh     0.065671    -0.979740    -1.639324
 C     1.914557    -1.654901     1.365084
 O     3.157740    -0.396994    -0.538234
 O     1.303752     0.906815     0.684636
 C    -2.097363     1.792976    -1.010277
 O    -3.145552    -0.618861    -0.861749
 O    -1.558560     0.100423     1.034874
 P    -1.645382     0.082908    -0.636479
 P     1.570836    -0.572581    -0.052507
 C    -0.190252    -0.207150    -3.335340
 O    -0.203139     0.419355    -4.300589
 C     0.861032    -2.463614     1.803988
 H    -0.081777    -2.461530     1.251002
 C     3.129077    -1.652562     2.055106
 H     3.944398    -1.020346     1.696536
 C     1.027062    -3.251609     2.938763
 H     0.209476    -3.887297     3.287364
 C     3.303976    -2.431630     3.202953
 C     4.597492    -2.375683     3.962178
 H     5.458928    -2.543536     3.297752
 H     4.732313    -1.383372     4.422393
 H     4.631727    -3.127529     4.762999
 C     2.236897    -3.229794     3.631773
 H     2.358315    -3.847333     4.526246
 C     3.493430     0.221080    -1.711490
 C     2.818804     1.354103    -2.163132
 H     2.012906     1.768996    -1.556756
 C     4.546293    -0.317849    -2.450334
 H     5.058845    -1.205025    -2.074671
 C     3.157215     1.947156    -3.383886
 C     2.358170     3.111805    -3.891022
 H     1.381236     2.766855    -4.268461
 H     2.160687     3.842683    -3.091628
 H     2.872126     3.631063    -4.711978
 C     4.903901     0.285701    -3.651578
 H     5.727731    -0.128851    -4.237689
 C     4.212191     1.402488    -4.121719
 H     4.493116     1.855481    -5.075804
 C     2.019521     1.324807     1.778195
 C     3.234132     1.982630     1.601044
 H     3.602489     2.148727     0.586134
 C     1.512223     1.084076     3.055236
 H     0.565078     0.553176     3.160383
 C     3.975947     2.408964     2.708789
 C     5.275440     3.135271     2.513513
 H     5.868762     2.685631     1.703430
 H     5.100123     4.188863     2.239518
 H     5.882800     3.128808     3.429629
 C     2.246143     1.508111     4.158211
 H     1.863892     1.320228     5.164389
 C     3.467953     2.159455     3.988843
 H     4.037710     2.481790     4.864456
 C    -1.066630     2.655759    -1.396262
 H    -0.059154     2.259360    -1.536661
 C    -3.396149     2.279430    -0.842602
 H    -4.192095     1.591039    -0.550648
 C    -1.343507     4.004053    -1.596422
 H    -0.545974     4.684544    -1.903981
 C    -3.681961     3.635084    -1.028209
 C    -5.070467     4.152828    -0.790201
 H    -5.820667     3.544323    -1.317763
 H    -5.317576     4.114549     0.283294
 H    -5.178282     5.194187    -1.124352
 C    -2.637638     4.486732    -1.407095
 H    -2.845322     5.549488    -1.560363
 C    -3.216233    -1.987320    -0.914010
 C    -2.788166    -2.764574     0.163259
 H    -2.410487    -2.265331     1.057958
 C    -3.706947    -2.586859    -2.072455
 H    -4.024042    -1.955023    -2.903372
 C    -2.823571    -4.161667     0.092237
 C    -2.288904    -4.986789     1.226488
 H    -1.192661    -5.084909     1.150434
 H    -2.507994    -4.523827     2.200170
 H    -2.711202    -6.001528     1.224356
 C    -3.763083    -3.975959    -2.137809
 H    -4.146127    -4.457238    -3.040834
 C    -3.321787    -4.758034    -1.070528
 H    -3.361346    -5.847883    -1.142674
 C    -2.347949     0.914513     1.808865
 C    -3.622415     0.497156     2.184175
 H    -3.982856    -0.476448     1.845150
 C    -1.854327     2.157873     2.203413
 H    -0.857989     2.461537     1.879959
 C    -4.438841     1.326861     2.961967
 C    -5.805537     0.866100     3.379475
 H    -6.328780     0.360259     2.554181
 H    -5.741441     0.145695     4.211759
 H    -6.428531     1.706309     3.717100
 C    -2.662779     2.984495     2.976080
 H    -2.291752     3.964713     3.284583
 C    -3.943726     2.576959     3.349133
 H    -4.570748     3.239395     3.951742
