  80
scf done:    -2373.503657
 C     0.210246    -3.239408    -1.287488
 H    -0.304023    -3.667429    -2.161817
 H     1.228473    -2.999882    -1.634292
 C     0.273244    -4.254483    -0.154593
 H     0.778083    -5.188610    -0.466105
 H     0.832196    -3.863625     0.710921
 H    -0.730192    -4.537676     0.202900
Rh    -0.832092    -1.556900    -0.503522
 O     1.230729     0.879409     0.297040
 O     2.254525    -1.420697     0.746298
 O     2.150987    -0.592718    -1.598856
 O    -1.618464     1.626563     0.554937
 O    -3.565518    -0.012399     0.443906
 O    -1.906301    -0.083781     2.284093
 P    -1.963497    -0.004047     0.659031
 P     1.229302    -0.686190    -0.258572
 C    -2.333753    -2.150065    -1.460145
 O    -3.205880    -2.438876    -2.144170
 C     2.296436     1.609796     0.739095
 C     2.205661     2.169147     2.015560
 H     1.302891     1.993468     2.602767
 C     3.426987     1.834025    -0.049478
 H     3.473632     1.403998    -1.049361
 C     3.256552     2.937312     2.510442
 H     3.181399     3.371377     3.510324
 C     4.475368     2.597587     0.460470
 H     5.361753     2.766833    -0.155746
 C     4.399098     3.148929     1.738829
 H     5.224408     3.747489     2.130126
 C     3.685454    -1.560693     0.624390
 H     4.038296    -0.862434    -0.148908
 C     3.986358    -2.978245     0.188609
 H     3.512351    -3.191317    -0.779995
 H     3.604355    -3.698907     0.927462
 H     5.071781    -3.125692     0.084165
 C     4.289227    -1.188522     1.960269
 H     4.042412    -0.149645     2.222169
 H     3.906413    -1.851626     2.751171
 H     5.384438    -1.286226     1.924046
 C     1.539683    -0.393959    -2.890790
 H     0.505516    -0.782717    -2.824827
 C     2.332181    -1.211774    -3.884529
 H     2.315933    -2.276708    -3.613175
 H     3.379686    -0.873287    -3.915353
 H     1.904181    -1.104658    -4.892099
 C     1.498222     1.084679    -3.210019
 H     0.953767     1.641045    -2.434703
 H     2.515442     1.499161    -3.293837
 H     0.980335     1.252799    -4.165506
 C    -1.405674     2.279893    -0.620242
 C    -0.548069     3.382410    -0.592579
 H    -0.059281     3.640320     0.348201
 C    -2.031981     1.907634    -1.813982
 H    -2.707029     1.050520    -1.832101
 C    -0.331726     4.119701    -1.752308
 H     0.339605     4.981279    -1.721986
 C    -1.801724     2.652480    -2.970568
 H    -2.296538     2.358560    -3.899452
 C    -0.958074     3.760774    -2.947428
 H    -0.785364     4.341207    -3.856174
 C    -4.456679     0.839954     1.191430
 H    -3.849615     1.579316     1.739317
 C    -5.216500    -0.019439     2.179255
 H    -4.514566    -0.515372     2.863398
 H    -5.796738    -0.790188     1.649257
 H    -5.911045     0.595529     2.771379
 C    -5.341479     1.556247     0.194547
 H    -4.738746     2.173584    -0.486983
 H    -5.909639     0.828094    -0.404440
 H    -6.054989     2.211766     0.715849
 C    -0.679993    -0.411582     2.956481
 H     0.163141    -0.053425     2.343207
 C    -0.571218    -1.913661     3.109147
 H    -0.602320    -2.398110     2.119171
 H    -1.403728    -2.303272     3.714831
 H     0.379975    -2.185947     3.589875
 C    -0.684033     0.343875     4.266542
 H    -0.786979     1.423479     4.083425
 H    -1.527409     0.020613     4.895811
 H     0.251305     0.164685     4.817243
