  96
scf done:    -3006.880256
 C    -1.076116     2.872113    -1.980274
 H    -1.554067     2.721917    -2.963276
 H    -1.908120     3.057750    -1.283161
 C    -0.190561     4.112164    -2.040289
 H     0.626909     4.005421    -2.771400
 H    -0.763945     5.013960    -2.325498
 H     0.280430     4.336483    -1.068366
Rh     0.050427     1.170704    -1.391311
 C    -0.622045     0.678411     2.035963
 C    -2.957209     1.683785     0.641017
 C    -2.092603    -1.053253     0.184700
 C     1.142610    -2.114441    -0.521044
 C     3.101297    -0.527175    -1.856460
 C     2.546490     0.158097     0.873521
 P     1.669365    -0.351031    -0.669658
 P    -1.420663     0.663793     0.376833
 C     0.650075     1.196633    -3.132812
 O     0.912501     1.126043    -4.252167
 C    -0.403664    -0.508879     2.750755
 H    -0.805294    -1.454274     2.383878
 C    -0.067744     1.885487     2.520437
 C    -0.258041     3.191204     1.808773
 H    -1.209149     3.666405     2.098591
 H    -0.275052     3.055524     0.715627
 H     0.553279     3.891634     2.047562
 C     0.345275    -0.519315     3.925257
 H     0.498817    -1.458108     4.462352
 C     0.690600     1.850373     3.696101
 H     1.138240     2.779800     4.057588
 C     0.901503     0.666788     4.397444
 H     1.503348     0.671422     5.309050
 H    -3.258820     1.584318     1.693156
 H    -2.663587     2.733653     0.486843
 C    -4.106283     1.316206    -0.257442
 C    -3.927167     1.045836    -1.620278
 H    -2.926981     1.108344    -2.057549
 C    -5.397386     1.220478     0.274727
 H    -5.555355     1.411419     1.339013
 C    -5.001952     0.674966    -2.424702
 H    -4.869762     0.457833    -3.486278
 C    -6.482097     0.856583    -0.516286
 H    -7.488088     0.768240    -0.102580
 C    -6.267636     0.582009    -1.860794
 F    -7.298465     0.216892    -2.624315
 H    -2.185608    -1.182542    -0.901634
 H    -1.277301    -1.734705     0.471956
 C    -3.395522    -1.419928     0.839333
 C    -4.383455    -2.042679     0.065344
 H    -4.188858    -2.236114    -0.992236
 C    -3.681907    -1.164692     2.186573
 H    -2.942278    -0.674255     2.821513
 C    -5.618091    -2.391839     0.600869
 H    -6.392712    -2.862512    -0.006881
 C    -4.914063    -1.505376     2.739926
 H    -5.143928    -1.302329     3.787504
 C    -5.870586    -2.112972     1.937571
 F    -7.055224    -2.430583     2.459779
 C     0.301859    -2.462723    -1.593599
 H     0.021051    -1.678763    -2.305261
 C     1.485698    -3.102053     0.429100
 C     2.422530    -2.889065     1.583429
 H     2.087786    -2.083929     2.251303
 H     3.435004    -2.640320     1.230197
 H     2.501243    -3.807644     2.180015
 C    -0.202039    -3.747923    -1.749685
 H    -0.848937    -3.983934    -2.597538
 C     0.935721    -4.383585     0.269628
 H     1.185373    -5.148776     1.009471
 C     0.108864    -4.715470    -0.797925
 H    -0.290733    -5.728634    -0.883847
 H     2.659270    -0.835432    -2.815333
 H     3.496881     0.491471    -1.992350
 C     4.157102    -1.482002    -1.400254
 C     5.250763    -1.038995    -0.643438
 H     5.366309     0.029341    -0.441540
 C     4.043397    -2.855086    -1.660277
 H     3.202507    -3.222703    -2.252897
 C     6.192963    -1.933808    -0.141860
 H     7.048931    -1.595407     0.444841
 C     4.976418    -3.762425    -1.166998
 H     4.892380    -4.832493    -1.364455
 C     6.038284    -3.289476    -0.405387
 F     6.933450    -4.152994     0.073208
 H     1.810994     0.098848     1.689276
 H     3.333735    -0.569660     1.099751
 C     3.159914     1.535779     0.843863
 C     2.663654     2.592307     0.072853
 H     1.801144     2.418451    -0.591668
 C     4.268882     1.787736     1.664636
 H     4.679429     0.977534     2.273713
 C     3.239952     3.859623     0.120021
 H     2.851950     4.679814    -0.487058
 C     4.855697     3.048033     1.728999
 H     5.717327     3.247124     2.368846
 C     4.329256     4.074316     0.952900
 F     4.886978     5.283330     1.007312
