  98
scf done:    -4970.849589
 C     1.478735    -1.938671    -2.905353
 H     1.471127    -1.804065    -3.998884
 H     2.503819    -1.673941    -2.600462
 C     1.193081    -3.392134    -2.551938
 H     0.207228    -3.719803    -2.920779
 H     1.943384    -4.079883    -2.986084
 H     1.205132    -3.563162    -1.462255
Rh    -0.003228    -0.671593    -2.017569
 C     2.471649    -1.639739     0.237480
 O     2.847505     0.556781    -1.490868
 O     1.565769     0.929262     0.634160
 C    -1.629365     1.978619    -0.081240
 O    -3.022254     0.533022    -1.958347
 O    -2.326951    -0.510450     0.302302
 P    -1.692817     0.373612    -0.958619
 P     1.704784    -0.203933    -0.593761
 C    -0.933240    -0.912102    -3.622616
 O    -1.432969    -1.013663    -4.647618
 C     1.628338    -2.271836     1.174539
 O     0.458742    -1.649061     1.388940
 C    -0.323645    -1.991416     2.508428
 H    -1.129335    -1.250900     2.550251
 H    -0.763716    -2.995249     2.396295
 H     0.275630    -1.936403     3.432084
 C     3.707204    -2.240454    -0.068986
 O     4.473027    -1.629826    -0.984428
 C     5.730367    -2.157992    -1.309954
 H     6.170785    -1.468169    -2.039787
 H     5.643827    -3.160670    -1.761187
 H     6.389473    -2.210167    -0.426997
 C     4.094471    -3.421328     0.579166
 H     5.050010    -3.890379     0.350772
 C     2.011960    -3.445203     1.826739
 H     1.356387    -3.919873     2.555051
 C     3.246505    -4.003359     1.514939
 H     3.556972    -4.925227     2.012307
 C     4.069430     1.101079    -1.251656
 C     4.953251     1.103097    -2.334860
 H     4.625680     0.646127    -3.270304
 C     4.447365     1.694514    -0.047044
 H     3.752498     1.742001     0.787741
 C     6.216632     1.666703    -2.211470
 H     6.910247     1.669154    -3.054085
 C     5.718722     2.252456     0.080673
 H     6.021744     2.714233     1.021806
 C     6.601591     2.232894    -0.995037
Cl     8.182061     2.925667    -0.829771
 C     1.611554     0.815698     1.989973
 C     0.540649     1.341644     2.716395
 H    -0.295468     1.780352     2.173326
 C     2.702143     0.259714     2.665547
 H     3.549581    -0.141953     2.110965
 C     0.543306     1.294507     4.104537
 H    -0.293115     1.703600     4.673496
 C     2.700595     0.200770     4.058071
 H     3.543787    -0.241468     4.590858
 C     1.621303     0.713299     4.773169
Cl     1.618357     0.633496     6.505445
 C    -2.508642     2.389258     0.952463
 O    -3.536352     1.589029     1.255622
 C    -4.511668     2.013023     2.167485
 H    -5.279978     1.230133     2.178311
 H    -4.100087     2.129873     3.185029
 H    -4.981556     2.958871     1.850205
 C    -0.595915     2.864978    -0.467535
 O     0.136146     2.495153    -1.522705
 C     1.255589     3.248208    -1.912634
 H     1.712693     2.698546    -2.742926
 H     1.987824     3.331050    -1.093241
 H     0.962863     4.256307    -2.251605
 C    -0.378495     4.068409     0.215418
 H     0.438209     4.729158    -0.069113
 C    -2.296430     3.603155     1.621569
 H    -2.963659     3.916124     2.422680
 C    -1.229739     4.415492     1.254913
 H    -1.066233     5.354174     1.789689
 C    -4.202474     1.109096    -1.586009
 C    -4.370578     2.488157    -1.703419
 H    -3.556107     3.092083    -2.106041
 C    -5.237251     0.310394    -1.099940
 H    -5.088764    -0.768767    -1.032140
 C    -5.559732     3.079240    -1.286587
 H    -5.700514     4.158944    -1.357288
 C    -6.430406     0.895334    -0.690530
 H    -7.246941     0.284788    -0.301304
 C    -6.577716     2.280269    -0.768960
Cl    -8.041959     3.019484    -0.201412
 C    -2.625879    -1.838955     0.290786
 C    -3.694530    -2.237993     1.097844
 H    -4.253862    -1.472282     1.638261
 C    -1.888323    -2.794735    -0.409766
 H    -1.045342    -2.467963    -1.037008
 C    -4.020241    -3.585569     1.215222
 H    -4.850340    -3.905550     1.847110
 C    -2.215100    -4.142404    -0.298850
 H    -1.636692    -4.891762    -0.842055
 C    -3.276228    -4.535573     0.515683
Cl    -3.675859    -6.217273     0.661458
