  84
scf done:    -2301.659331
 C     1.656324    -1.376146    -2.488492
 H     1.505924    -1.392652    -3.575252
 H     2.607522    -0.867372    -2.276666
 C     1.560914    -2.745073    -1.841064
 H     1.288862    -3.543129    -2.547394
 H     2.477927    -3.032506    -1.303682
 H     0.757064    -2.777219    -1.043188
Rh    -0.021216    -0.774731    -1.383070
 C     2.888415    -0.418054     0.553252
 O     2.228876     1.612671    -0.956486
 O     0.786674     1.222313     1.132931
 C    -2.863305     0.712157     0.134846
 O    -2.939406    -1.874556    -0.111415
 O    -1.262798    -0.992450     1.604666
 P    -1.760098    -0.733860     0.058448
 P     1.429994     0.417290    -0.152219
 C    -1.035963    -0.435847    -2.916277
 O    -1.606094    -0.026228    -3.830374
 C     2.630687    -1.535746     1.359040
 H     1.595317    -1.838824     1.545218
 C     4.203825    -0.029125     0.301825
 H     4.381456     0.839418    -0.336790
 C     3.692228    -2.233945     1.922497
 H     3.500389    -3.099750     2.561022
 C     5.282297    -0.732320     0.855573
 C     6.693982    -0.320147     0.553535
 H     6.987230    -0.637517    -0.460853
 H     6.810295     0.773189     0.595420
 H     7.406905    -0.768354     1.259989
 C     5.006178    -1.833243     1.672200
 H     5.835265    -2.391119     2.116674
 C     1.564949     2.378783    -1.969882
 H     0.515036     2.036040    -2.025931
 C     2.230510     2.106227    -3.301476
 H     2.131480     1.045328    -3.564938
 H     3.300608     2.362684    -3.255933
 H     1.761525     2.705932    -4.095938
 C     1.610881     3.839396    -1.569981
 H     1.117651     3.997313    -0.600742
 H     2.652945     4.184651    -1.483926
 H     1.101634     4.461093    -2.321646
 C     1.526389     2.135091     1.951783
 H     2.393811     2.500578     1.373994
 C     2.011653     1.443362     3.212301
 H     2.701749     0.622016     2.981065
 H     1.158326     1.030835     3.771399
 H     2.535747     2.161777     3.860771
 C     0.604896     3.299184     2.258078
 H     0.278360     3.797391     1.335081
 H    -0.292957     2.943150     2.785495
 H     1.113416     4.041287     2.891414
 C    -4.247486     0.602607     0.300610
 H    -4.706336    -0.385631     0.357775
 C    -2.273325     1.974540     0.016281
 H    -1.191330     2.038238    -0.119721
 C    -5.020517     1.759323     0.366933
 H    -6.103789     1.683224     0.489825
 C    -3.039104     3.141497     0.085357
 C    -2.391367     4.492324    -0.013374
 H    -2.103715     4.865723     0.983661
 H    -1.477907     4.454318    -0.624030
 H    -3.070187     5.234627    -0.457634
 C    -4.422234     3.013460     0.263724
 H    -5.042227     3.913460     0.309266
 C    -2.575982    -3.252545    -0.247156
 H    -1.555458    -3.389853     0.158740
 C    -2.586358    -3.647087    -1.710249
 H    -1.858104    -3.047634    -2.274957
 H    -3.585240    -3.479630    -2.141238
 H    -2.328040    -4.710760    -1.824853
 C    -3.550226    -4.056476     0.589277
 H    -3.517530    -3.742794     1.642459
 H    -4.576609    -3.910431     0.218846
 H    -3.313205    -5.129574     0.537544
 C    -2.145760    -0.994608     2.729508
 H    -3.175968    -1.175637     2.373355
 C    -2.082597     0.347557     3.431819
 H    -2.388630     1.158573     2.757265
 H    -1.054561     0.547083     3.767831
 H    -2.747533     0.354988     4.308684
 C    -1.721913    -2.143490     3.622037
 H    -1.768387    -3.098069     3.078361
 H    -0.685642    -1.994176     3.962666
 H    -2.372776    -2.212804     4.506472
