  96
scf done:    -2982.741849
 C     1.008603     1.197504    -3.444994
 H     0.580311     1.996841    -4.068261
 H     2.043147     1.490922    -3.219486
 C     0.970185    -0.123054    -4.200154
 H     1.527160    -0.060150    -5.154052
 H     1.416825    -0.950115    -3.624726
 H    -0.058028    -0.426862    -4.458160
Rh    -0.082502     0.881085    -1.661790
 O     1.933549    -1.601776    -0.335541
 O     3.157537     0.269831    -1.534780
 O     2.095301     0.570982     0.780704
 O    -1.730852     1.176396     1.349243
 O    -3.049516     0.058688    -0.372774
 O    -1.091231    -1.146222     0.730081
 P    -1.455075     0.273410     0.004982
 P     1.761534    -0.017055    -0.716103
 C    -1.090034     2.363337    -2.218419
 O    -1.607824     3.332695    -2.536532
 C     2.196215    -2.206560     0.877627
 C     1.260402    -3.121160     1.353023
 H     0.359952    -3.301928     0.771058
 C     3.371349    -1.959600     1.585639
 H     4.105866    -1.253716     1.200365
 C     1.487612    -3.777382     2.559700
 H     0.742251    -4.484113     2.931957
 C     3.588674    -2.623010     2.791654
 H     4.509062    -2.426260     3.346614
 C     2.649852    -3.526967     3.287670
 H     2.826571    -4.038522     4.236380
 C     4.408840    -0.118444    -1.106642
 C     5.095842     0.675685    -0.191405
 H     4.630177     1.590472     0.178439
 C     4.960834    -1.296229    -1.630351
 C     4.209032    -2.112825    -2.635063
 H     3.291159    -2.530176    -2.193930
 H     3.900339    -1.495139    -3.492185
 H     4.825351    -2.942676    -3.005651
 C     6.359434     0.283996     0.245580
 H     6.898112     0.901459     0.967685
 C     6.230644    -1.662756    -1.173242
 H     6.681415    -2.579658    -1.562087
 C     6.924505    -0.892618    -0.241387
 H     7.912908    -1.209844     0.098287
 C     1.936993     1.861539     1.210035
 C     2.223621     2.953447     0.392238
 H     2.532682     2.792758    -0.642366
 C     1.512944     2.016646     2.538161
 C     1.192139     0.807965     3.360629
 H     0.438865     0.185007     2.856066
 H     2.078338     0.168235     3.495264
 H     0.809288     1.094327     4.349232
 C     2.104761     4.243374     0.911014
 H     2.327774     5.101843     0.273672
 C     1.406567     3.320534     3.027724
 H     1.073575     3.467014     4.058463
 C     1.702036     4.427353     2.231142
 H     1.605550     5.434687     2.641602
 C    -2.269878     2.444318     1.256282
 C    -3.627819     2.615766     1.516505
 H    -4.234718     1.741826     1.757951
 C    -1.453695     3.523375     0.931318
 H    -0.396185     3.354358     0.729258
 C    -4.172038     3.896515     1.457052
 H    -5.235552     4.040499     1.661695
 C    -2.011752     4.798308     0.868676
 H    -1.374266     5.647230     0.611515
 C    -3.367330     4.989133     1.131636
 H    -3.799815     5.990841     1.081212
 C    -3.525528    -0.779035    -1.351018
 C    -2.849070    -0.992627    -2.550434
 H    -1.900207    -0.474713    -2.734531
 C    -4.746477    -1.412625    -1.071244
 C    -5.444389    -1.154983     0.227591
 H    -4.801216    -1.421165     1.080710
 H    -5.691764    -0.087243     0.335722
 H    -6.373592    -1.736182     0.296875
 C    -3.380952    -1.868251    -3.494794
 H    -2.845155    -2.038062    -4.431417
 C    -5.256651    -2.281761    -2.038626
 H    -6.204537    -2.788333    -1.837625
 C    -4.585877    -2.517403    -3.239419
 H    -5.008448    -3.205335    -3.974948
 C    -1.966548    -1.921379     1.465935
 C    -2.373263    -1.495635     2.730413
 H    -2.014937    -0.535847     3.102107
 C    -2.382934    -3.146445     0.926246
 C    -1.949869    -3.615726    -0.431079
 H    -2.798336    -3.614952    -1.133225
 H    -1.170429    -2.972163    -0.856938
 H    -1.563705    -4.645230    -0.380415
 C    -3.229296    -2.293772     3.482021
 H    -3.551256    -1.960701     4.471176
 C    -3.239033    -3.929421     1.711778
 H    -3.578447    -4.889292     1.312758
 C    -3.665308    -3.515678     2.969982
 H    -4.336144    -4.149552     3.554134
