  78
scf done:    -2222.948841
 C     1.844596    -2.472774     0.524571
 H     1.700542    -3.562970     0.461578
 H     2.488933    -2.210190    -0.330835
 C     2.539255    -2.117124     1.831854
 H     1.941372    -2.422431     2.706715
 H     3.528717    -2.604777     1.932197
 H     2.719398    -1.032140     1.922886
Rh     0.012486    -1.412954     0.565773
 C     2.818724     0.604367    -0.366163
 C     1.131942    -0.637709    -2.491168
 C     0.315499     1.774191    -1.225728
 C    -2.792899     0.682733    -0.234502
 C    -3.251956    -0.978187     1.995255
 C    -1.315116     1.148124     2.345609
 P    -1.841457    -0.140461     1.125267
 P     1.083113     0.138514    -0.809755
 C    -0.876858    -3.011137     0.644705
 O    -1.476238    -3.988656     0.483076
 C     2.984178     1.503164     0.708554
 O     1.846426     2.009927     1.234579
 C     1.925928     2.958619     2.260378
 H     0.894924     3.253380     2.492729
 H     2.387700     2.540329     3.170723
 H     2.493105     3.851444     1.945208
 C     3.987586     0.038380    -0.913678
 O     3.831936    -0.829438    -1.932684
 C     4.935330    -1.531418    -2.428636
 H     4.548210    -2.212038    -3.197762
 H     5.427725    -2.126109    -1.640209
 H     5.679173    -0.859105    -2.890943
 C     5.256956     0.366654    -0.417374
 H     6.151665    -0.078424    -0.849556
 C     4.246961     1.842798     1.204729
 H     4.354427     2.538706     2.034997
 C     5.373725     1.265093     0.633485
 H     6.363977     1.518156     1.019097
 H     1.656180    -1.591422    -2.361742
 C    -0.270486    -0.884298    -3.025772
 H    -0.808357     0.045618    -3.264696
 H    -0.860991    -1.433538    -2.276258
 H     1.737028    -0.027369    -3.178101
 H    -0.227300    -1.484541    -3.947931
 H     0.034520     2.251303    -0.279225
 C     1.147271     2.711722    -2.082269
 H     1.428789     2.251881    -3.042066
 H     2.077557     3.004450    -1.572420
 H    -0.628491     1.514656    -1.727948
 H     0.585572     3.631506    -2.312862
 C    -2.973449     2.064393    -0.436900
 O    -2.502722     2.893568     0.520006
 C    -2.570017     4.277718     0.334416
 H    -2.104560     4.732503     1.218764
 H    -2.016876     4.598867    -0.565683
 H    -3.611810     4.635133     0.259924
 C    -3.297843    -0.187328    -1.227649
 O    -3.129727    -1.499770    -0.988481
 C    -3.519924    -2.457403    -1.935024
 H    -3.214709    -3.427495    -1.524190
 H    -3.013172    -2.300317    -2.901910
 H    -4.612434    -2.449446    -2.091849
 C    -3.925393     0.293218    -2.382328
 H    -4.301111    -0.394427    -3.138613
 C    -3.596848     2.554555    -1.592576
 H    -3.723695     3.625350    -1.743858
 C    -4.062379     1.664745    -2.553155
 H    -4.548591     2.050580    -3.452189
 H    -3.661486    -1.670364     1.246185
 C    -2.893528    -1.732462     3.265256
 H    -2.678411    -1.054075     4.103584
 H    -2.012626    -2.375176     3.113085
 H    -4.023214    -0.213984     2.187858
 H    -3.729642    -2.378089     3.575365
 H    -2.197587     1.594788     2.830150
 C    -0.322098     0.581720     3.353634
 H     0.559261     0.171657     2.835849
 H    -0.745872    -0.225423     3.964554
 H    -0.835406     1.944998     1.765700
 H     0.018500     1.371523     4.042111
