  92
scf done:    -2681.933956
 C     2.005832    -2.539099     1.706531
 H     2.270397    -3.526955     1.298331
 H     2.870474    -1.904330     1.447727
 C     1.843044    -2.619216     3.218011
 H     2.779117    -2.922455     3.724729
 H     1.538325    -1.656353     3.664655
 H     1.067774    -3.346080     3.507351
Rh     0.179945    -1.828021     0.848520
 O     0.311855     1.428734     0.195194
 C     2.391634     0.766955     1.889315
 C     2.379938     0.153757    -1.025568
 O    -2.025235    -0.070990    -1.129762
 C    -3.236070    -2.133058     0.116408
 C    -2.415301     0.317667     1.520857
 P    -1.836624    -0.941738     0.295133
 P     1.339705     0.119047     0.495508
 C    -0.351033    -3.608629     0.850108
 O    -0.626405    -4.721557     0.771638
 C     0.686417     2.733842     0.058708
 C     0.513382     3.601747     1.140312
 H     0.084342     3.215774     2.067280
 C     1.176660     3.218932    -1.156992
 H     1.260512     2.542438    -2.007259
 C     0.872651     4.942251     1.018758
 H     0.739056     5.614471     1.869360
 C     1.534790     4.560877    -1.267219
 H     1.923357     4.935110    -2.217351
 C     1.394951     5.424503    -0.180767
 H     1.679101     6.474812    -0.273259
 H     2.367499    -0.020667     2.653745
 H     1.824203     1.619378     2.292604
 C     3.808213     1.165837     1.598799
 C     4.112040     2.385787     0.979354
 H     3.306797     3.074360     0.711736
 C     4.861500     0.313380     1.948969
 H     4.638660    -0.643750     2.427597
 C     5.433494     2.733761     0.706585
 H     5.649819     3.689023     0.222162
 C     6.183189     0.664210     1.685211
 H     6.989444    -0.017499     1.965765
 C     6.474505     1.873888     1.056978
 H     7.510319     2.149105     0.844856
 H     2.905788     1.118536    -1.054396
 H     1.635538     0.141388    -1.838005
 C     3.355684    -0.974693    -1.196527
 C     4.731186    -0.724703    -1.184854
 H     5.091372     0.295009    -1.027251
 C     2.910985    -2.286890    -1.399003
 H     1.837788    -2.493033    -1.377695
 C     5.644053    -1.762674    -1.363062
 H     6.715328    -1.547853    -1.345590
 C     3.821385    -3.324138    -1.576590
 H     3.456636    -4.343815    -1.722818
 C     5.192390    -3.066172    -1.558255
 H     5.906934    -3.881548    -1.694770
 C    -1.194039    -0.139609    -2.199112
 C    -1.006894     1.032897    -2.936908
 H    -1.519961     1.939824    -2.613219
 C    -0.559528    -1.321632    -2.592792
 H    -0.706899    -2.235052    -2.013803
 C    -0.172540     1.024200    -4.051093
 H    -0.029269     1.945650    -4.621235
 C     0.279508    -1.316030    -3.706842
 H     0.785344    -2.238877    -3.999252
 C     0.483571    -0.146538    -4.436848
 H     1.145706    -0.148446    -5.304941
 H    -3.144190    -2.809675     0.980468
 H    -2.965336    -2.734281    -0.768682
 C    -4.634376    -1.601239     0.007908
 C    -5.035386    -0.803444    -1.072452
 H    -4.312150    -0.547267    -1.847847
 C    -5.574291    -1.905086     0.999306
 H    -5.278339    -2.535519     1.842911
 C    -6.334577    -0.311940    -1.144449
 H    -6.624798     0.321522    -1.985804
 C    -6.878837    -1.419746     0.923622
 H    -7.598137    -1.671705     1.706836
 C    -7.261737    -0.616574    -0.147769
 H    -8.281629    -0.229484    -0.208663
 H    -1.482315     0.801747     1.844026
 H    -2.782891    -0.276631     2.373265
 C    -3.417919     1.351688     1.098848
 C    -4.722488     1.343911     1.600480
 H    -5.027147     0.559500     2.296356
 C    -3.047485     2.371740     0.212517
 H    -2.026933     2.395629    -0.170219
 C    -5.644466     2.311303     1.207845
 H    -6.662206     2.277782     1.603531
 C    -3.966734     3.340234    -0.179600
 H    -3.658883     4.127816    -0.872128
 C    -5.272161     3.310326     0.311118
 H    -5.994841     4.068700     0.000269
