  80
scf done:    -2000.864516
 C     2.194331    -2.891113     0.108148
 H     2.451295    -3.650208    -0.648137
 H     3.107332    -2.295735     0.253855
 C     1.815102    -3.570048     1.418457
 H     0.953416    -4.246068     1.298135
 H     2.645697    -4.174215     1.832592
 H     1.537230    -2.841578     2.201137
Rh     0.514121    -1.708257    -0.384903
 C     1.286414     1.251794     1.342113
 C     3.563090     0.194243    -0.036133
 C     1.453655     1.427348    -1.562782
 C    -1.929657     0.817314    -1.228922
 C    -2.987737    -1.779810    -0.697508
 C    -1.935885    -0.204747     1.493668
 P    -1.564819    -0.686947    -0.247208
 P     1.721373     0.274976    -0.151534
 C    -0.068083    -3.136127    -1.388598
 O    -0.380010    -3.938049    -2.158523
 C     0.687388     2.514387     1.309706
 H     0.538612     3.035051     0.363332
 C     1.434348     0.607428     2.580210
 H     1.866814    -0.398234     2.608934
 C     0.241856     3.106392     2.493211
 H    -0.234012     4.090040     2.459003
 C     1.000510     1.188405     3.772262
 C     1.154871     0.476627     5.084474
 H     1.567256    -0.532696     4.948540
 H     1.828508     1.028591     5.759399
 H     0.186660     0.381501     5.600610
 C     0.393869     2.452210     3.710761
 H     0.033148     2.922035     4.630090
 H     3.953635     1.202996     0.175429
 H     3.797391    -0.425122     0.845298
 C     4.201518    -0.402896    -1.285816
 H     4.081019     0.296419    -2.130033
 H     3.650638    -1.314233    -1.571246
 C     5.675528    -0.722825    -1.094776
 H     6.250908     0.174652    -0.815637
 H     5.816178    -1.469124    -0.296603
 H     6.119845    -1.132612    -2.014488
 H     1.526836     0.799771    -2.465748
 H     0.395255     1.723626    -1.512692
 C     2.354262     2.652942    -1.679090
 H     3.382471     2.339812    -1.921545
 H     2.425783     3.171773    -0.709129
 C     1.853527     3.621310    -2.740839
 H     1.794281     3.133727    -3.726842
 H     0.840860     3.983857    -2.500732
 H     2.515073     4.495774    -2.836850
 C    -1.943782     0.703513    -2.625918
 H    -1.822761    -0.276527    -3.095309
 C    -2.039078     2.090065    -0.656925
 H    -2.015438     2.203470     0.428217
 C    -2.071403     1.839552    -3.418916
 H    -2.083822     1.742836    -4.507304
 C    -2.143025     3.243890    -1.442318
 C    -2.190433     4.601403    -0.802296
 H    -2.468447     4.536333     0.259323
 H    -1.205709     5.096277    -0.856759
 H    -2.911175     5.262723    -1.305764
 C    -2.163111     3.101805    -2.833943
 H    -2.247661     3.989729    -3.466623
 H    -3.924285    -1.199399    -0.659601
 H    -2.829147    -2.062902    -1.751331
 C    -3.076225    -3.033040     0.165442
 H    -3.390796    -2.756328     1.186063
 H    -2.069790    -3.472015     0.271539
 C    -4.030218    -4.070899    -0.404061
 H    -5.045921    -3.661890    -0.528271
 H    -3.685881    -4.417475    -1.391282
 H    -4.101929    -4.951974     0.251513
 H    -1.601045    -1.061153     2.102995
 H    -1.233517     0.606443     1.743503
 C    -3.365711     0.182411     1.852433
 H    -4.028197    -0.690863     1.737214
 H    -3.744575     0.937583     1.144347
 C    -3.466643     0.716065     3.273996
 H    -3.120055    -0.032279     4.004791
 H    -2.839607     1.612843     3.405012
 H    -4.501722     0.984720     3.534749
