  94
scf done:    -2384.055333
 C     0.352732    -2.925090     1.947298
 H     0.711267    -3.930040     1.666819
 H     1.211723    -2.441584     2.432402
 C    -0.776888    -3.044660     2.963302
 H    -1.622208    -3.634757     2.574695
 H    -0.445812    -3.530951     3.900616
 H    -1.188534    -2.060251     3.246064
Rh    -0.341610    -1.841000     0.250458
 C     1.836258     0.625230     1.963112
 C     2.957651    -1.658111     0.488983
 C     1.927717     0.778451    -0.906175
 C    -0.819127    -0.801673    -3.101555
 C    -3.268290    -1.375035    -1.677496
 C    -1.857802     1.100804    -1.218782
 P    -1.528609    -0.711427    -1.392837
 P     1.540167    -0.439553     0.481319
 C    -1.074229    -3.454073    -0.232110
 O    -1.400951    -4.497711    -0.599611
 H     1.132405     1.464169     1.850635
 C     1.629952    -0.022236     3.320804
 H     2.340023    -0.842321     3.507594
 H     0.615907    -0.433972     3.423527
 H     2.843798     1.061532     1.871052
 H     1.775186     0.723221     4.117649
 H     2.910787    -2.098453     1.495599
 H     2.623305    -2.453371    -0.189262
 C     4.348721    -1.206211     0.183668
 C     5.111346    -0.574411     1.173613
 H     4.675575    -0.430811     2.165685
 C     4.921263    -1.427344    -1.087772
 C     4.173253    -2.150668    -2.172110
 H     3.195926    -1.692512    -2.390108
 H     3.969450    -3.196774    -1.890594
 H     4.752079    -2.164179    -3.105657
 C     6.405418    -0.130602     0.921993
 H     6.975146     0.368259     1.709157
 C     6.226403    -0.979286    -1.323684
 H     6.671945    -1.148076    -2.307916
 C     6.965279    -0.328674    -0.337829
 H     7.980498     0.013079    -0.552586
 H     2.427536     0.181337    -1.683237
 H     0.948635     1.055466    -1.316544
 C     2.740531     2.009516    -0.598337
 C     4.131644     1.976792    -0.750132
 H     4.604066     1.064525    -1.113901
 C     2.136042     3.212309    -0.167867
 C     0.647075     3.376734    -0.079901
 H     0.141583     2.552392     0.440996
 H     0.199733     3.439544    -1.086720
 H     0.382131     4.303294     0.447181
 C     4.929112     3.076271    -0.448344
 H     6.012003     3.006568    -0.573658
 C     2.953310     4.306127     0.139287
 H     2.481016     5.231426     0.480844
 C     4.338227     4.248104     0.012963
 H     4.948456     5.119179     0.263430
 H    -0.839629    -1.876586    -3.348028
 C    -1.462067     0.031863    -4.198030
 H    -1.346779     1.110080    -4.012676
 H    -2.538901    -0.173813    -4.301683
 H     0.247815    -0.550503    -2.991287
 H    -0.997332    -0.182824    -5.172669
 H    -3.445686    -1.362417    -2.763194
 H    -3.249981    -2.427747    -1.362850
 C    -4.356842    -0.603150    -0.990535
 C    -5.053977     0.374513    -1.710218
 H    -4.835917     0.503289    -2.775082
 C    -4.666341    -0.803606     0.371272
 C    -4.001145    -1.881942     1.170635
 H    -2.901607    -1.823496     1.114044
 H    -4.276457    -2.882872     0.797376
 H    -4.289912    -1.826754     2.228780
 C    -6.011920     1.182980    -1.104085
 H    -6.539699     1.940591    -1.688372
 C    -5.622106     0.024272     0.967748
 H    -5.846168    -0.115169     2.028476
 C    -6.284179     1.017321     0.250406
 H    -7.019954     1.652567     0.748888
 H    -0.931970     1.613040    -1.532945
 H    -2.611469     1.375238    -1.970249
 C    -2.282505     1.606747     0.137193
 C    -1.970374     0.924829     1.317397
 H    -1.428639    -0.029592     1.256537
 C    -2.973039     2.834928     0.225061
 C    -3.292192     3.637113    -1.001851
 H    -3.949200     3.077957    -1.686737
 H    -2.381765     3.898700    -1.565460
 H    -3.803604     4.572989    -0.738361
 C    -2.339963     1.415918     2.565985
 H    -2.084637     0.851630     3.466221
 C    -3.343471     3.313253     1.485856
 H    -3.884682     4.261325     1.549312
 C    -3.037204     2.616802     2.652210
 H    -3.340395     3.015171     3.623398
