  92
scf done:    -2880.306414
 C    -2.074321    -3.535941    -1.653353
 H    -1.876233    -4.616150    -1.573269
 H    -2.923326    -3.357271    -0.974693
 C    -2.433452    -3.194033    -3.093402
 H    -1.620346    -3.461164    -3.786789
 H    -3.340184    -3.726619    -3.438513
 H    -2.619764    -2.115777    -3.243250
Rh    -0.397884    -2.352196    -1.085045
 O    -1.469546     0.803887    -0.965599
 C    -3.678753    -0.864699    -0.645455
 C    -1.792082    -0.485759     1.499442
 O     1.177785     0.182634     0.412768
 C     2.962936    -1.907476    -0.176349
 C     1.930400    -0.039173    -2.227951
 P     1.417173    -1.028666    -0.732444
 P    -1.858171    -0.694001    -0.335883
 C     0.551827    -3.919798    -1.320035
 O     1.126123    -4.912768    -1.402858
 C    -1.683215     2.064847    -0.473013
 C    -1.072016     2.506703     0.702435
 H    -0.429627     1.833661     1.265019
 C    -2.421327     2.959294    -1.248774
 H    -2.867179     2.608195    -2.178615
 C    -1.247810     3.820678     1.128814
 H    -0.777057     4.182804     2.044432
 C    -2.593541     4.274552    -0.831404
 H    -3.180956     4.981992    -1.419030
 C    -2.013702     4.688596     0.361791
 F    -2.184810     5.946972     0.770192
 H    -4.027145    -1.550513     0.144755
 H    -3.771140    -1.408096    -1.594982
 C    -4.495691     0.389517    -0.689428
 C    -4.950371     0.876819    -1.921004
 H    -4.708431     0.325243    -2.833697
 C    -4.833301     1.100935     0.469158
 H    -4.519478     0.724388     1.444387
 C    -5.701892     2.047452    -1.996741
 H    -6.049917     2.406253    -2.968552
 C    -5.572937     2.277915     0.396345
 H    -5.815940     2.821693     1.312126
 C    -6.007283     2.758901    -0.838009
 H    -6.590562     3.680817    -0.894441
 H    -2.359903     0.409139     1.790000
 H    -0.733581    -0.302541     1.731064
 C    -2.301991    -1.705722     2.213657
 C    -1.656045    -2.941525     2.070674
 H    -0.785369    -3.012774     1.406356
 C    -3.440869    -1.636165     3.024240
 H    -3.950190    -0.677924     3.159515
 C    -2.142201    -4.075161     2.716342
 H    -1.630082    -5.031233     2.583834
 C    -3.926615    -2.770048     3.674063
 H    -4.815867    -2.694028     4.304315
 C    -3.279482    -3.994349     3.519697
 H    -3.661325    -4.884955     4.024352
 C     1.916269     0.528947     1.500610
 C     2.566699     1.765328     1.519157
 H     2.516278     2.406076     0.638816
 C     1.947323    -0.298579     2.627358
 H     1.403071    -1.245985     2.618213
 C     3.277952     2.155871     2.648793
 H     3.800424     3.113538     2.683376
 C     2.667732     0.086482     3.756732
 H     2.712855    -0.545390     4.645344
 C     3.329444     1.308418     3.750942
 F     4.017614     1.681724     4.829018
 H     2.888454    -2.868721    -0.706496
 H     2.801546    -2.141080     0.887198
 C     4.316202    -1.307253    -0.409777
 C     4.943623    -0.493329     0.541232
 H     4.449865    -0.292911     1.492858
 C     4.996435    -1.577407    -1.605685
 H     4.540579    -2.242791    -2.344761
 C     6.193779     0.064673     0.286751
 H     6.660702     0.702197     1.041195
 C     6.248518    -1.022124    -1.861790
 H     6.759026    -1.245277    -2.801573
 C     6.848253    -0.188922    -0.918263
 H     7.828681     0.250330    -1.116236
 H     1.043417    -0.064689    -2.877360
 H     2.718210    -0.624387    -2.726527
 C     2.358011     1.378108    -1.987528
 C     3.701989     1.741094    -1.845496
 H     4.482469     0.984419    -1.933088
 C     1.381117     2.376215    -1.885646
 H     0.332689     2.102997    -2.005608
 C     4.054779     3.065540    -1.589837
 H     5.110148     3.327026    -1.481010
 C     1.729822     3.698038    -1.622946
 H     0.945266     4.453609    -1.534286
 C     3.072184     4.047933    -1.469154
 H     3.351165     5.084088    -1.262981
