 102
scf done:    -3061.302214
 C     0.832217    -3.364843    -1.995558
 H     0.783485    -3.721893    -3.030444
 H     1.875869    -3.413543    -1.657584
 C    -0.152698    -4.029711    -1.055953
 H    -0.828230    -4.733927    -1.562201
 H     0.330157    -4.526278    -0.200912
 H    -0.848743    -3.278500    -0.569744
Rh    -0.155257    -1.559483    -1.639715
 O     2.486891    -1.645330     0.501135
 O     2.978174    -0.657059    -1.707300
 O     1.536664     0.696167    -0.047426
 O    -1.507976     1.505640    -1.595031
 O    -3.133437    -0.278938    -0.945072
 O    -1.324899     0.387734     0.734868
 P    -1.502068     0.052258    -0.865530
 P     1.690978    -0.804030    -0.710373
 C    -0.825129    -1.530232    -3.409565
 O    -1.120059    -1.407953    -4.511302
 C     1.783889    -2.349361     1.441321
 C     0.651289    -1.825463     2.061957
 H     0.291670    -0.828998     1.802499
 C     2.235039    -3.627584     1.774230
 H     3.119665    -4.022998     1.271273
 C    -0.030062    -2.594929     3.004223
 H    -0.919780    -2.175234     3.482182
 C     1.547476    -4.376481     2.722418
 H     1.908171    -5.377983     2.973741
 C     0.397798    -3.878891     3.353024
 C    -0.334771    -4.699210     4.375317
 H    -1.265474    -4.207826     4.691876
 H     0.280400    -4.859897     5.275540
 H    -0.595915    -5.694138     3.981335
 C     4.225750    -0.160836    -1.391099
 C     4.552318     1.119370    -1.824168
 H     3.808068     1.685014    -2.388233
 C     5.140693    -0.936078    -0.681147
 H     4.862955    -1.940801    -0.365351
 C     5.792578     1.681111    -1.506594
 C     6.111486     3.086120    -1.924453
 H     5.899506     3.245250    -2.992689
 H     5.495302     3.802746    -1.357602
 H     7.167378     3.331450    -1.744216
 C     6.381764    -0.385262    -0.375027
 H     7.110340    -0.978328     0.183390
 C     6.702439     0.911970    -0.772814
 H     7.677547     1.334256    -0.516491
 C     2.442711     1.579448     0.479350
 C     3.390296     1.200121     1.425611
 H     3.443085     0.158686     1.743437
 C     2.345831     2.903960     0.051193
 H     1.590466     3.162079    -0.692980
 C     4.299037     2.140574     1.923457
 C     5.369023     1.705786     2.880567
 H     4.960347     1.066118     3.677189
 H     6.134706     1.116593     2.349640
 H     5.868161     2.565171     3.349537
 C     3.229095     3.845521     0.568015
 H     3.161151     4.886222     0.241391
 C     4.205164     3.467095     1.489440
 H     4.905277     4.210789     1.878247
 C    -2.315015     2.593398    -1.321139
 C    -1.749502     3.698113    -0.689683
 H    -0.695273     3.671757    -0.412498
 C    -3.655432     2.598625    -1.690545
 H    -4.075689     1.730594    -2.197705
 C    -2.549231     4.789551    -0.376622
 H    -2.105279     5.641730     0.144651
 C    -4.442054     3.704662    -1.372495
 H    -5.498721     3.703054    -1.654300
 C    -3.912699     4.809790    -0.699134
 C    -4.775075     5.972302    -0.302818
 H    -4.299901     6.932880    -0.553741
 H    -4.953653     5.974821     0.785794
 H    -5.754730     5.937615    -0.799992
 C    -3.544696    -1.577254    -0.755581
 C    -3.207515    -2.270397     0.405503
 H    -2.618549    -1.769353     1.176877
 C    -4.291321    -2.187107    -1.762575
 H    -4.525881    -1.624258    -2.667379
 C    -3.599316    -3.604655     0.573210
 C    -3.179074    -4.358187     1.800743
 H    -3.446248    -3.811009     2.718119
 H    -3.647867    -5.350814     1.845841
 H    -2.085552    -4.494080     1.816558
 C    -4.699340    -3.505157    -1.589055
 H    -5.284653    -3.995434    -2.370513
 C    -4.352923    -4.210569    -0.435812
 H    -4.669004    -5.250279    -0.319611
 C    -1.832753     1.412997     1.499870
 C    -3.201953     1.641128     1.596174
 H    -3.890630     1.007918     1.035001
 C    -0.916463     2.196511     2.200034
 H     0.150392     1.990046     2.101742
 C    -3.681229     2.707296     2.364929
 C    -5.153957     2.989824     2.411697
 H    -5.515484     3.302807     1.418762
 H    -5.726089     2.093798     2.697585
 H    -5.390165     3.788931     3.128122
 C    -1.394592     3.241401     2.983526
 H    -0.688243     3.867189     3.534203
 C    -2.762323     3.502723     3.057922
 H    -3.124921     4.336163     3.665036
