 112
scf done:    -4359.276599
 C     0.642581    -3.736253     0.093205
 H     0.086444    -4.563662    -0.366411
 H     1.704071    -3.834835    -0.158288
 C     0.375505    -3.585502     1.575522
 H    -0.360433    -4.302443     1.969715
 H     1.290064    -3.638367     2.186146
 H    -0.055734    -2.562467     1.817254
Rh    -0.251031    -1.890089    -0.199448
 O     2.004696     0.511938     0.919871
 C     3.192617    -1.876962     0.135809
 C     2.310234     0.146945    -1.734581
 O    -2.846316    -0.065789    -1.150357
 C    -3.080066    -0.642766     1.488418
 C    -1.243211     1.468262     0.549218
 P    -1.839895    -0.223800     0.173621
 P     1.768772    -0.745084    -0.202552
 C    -1.175723    -2.552389    -1.635960
 O    -1.667866    -2.898231    -2.625151
 C     2.904347     1.522679     0.890451
 C     4.012057     1.493423     1.742008
 H     4.153604     0.618994     2.376460
 C     2.696351     2.630002     0.063864
 H     1.809673     2.659703    -0.569306
 C     4.919757     2.547640     1.751000
 H     5.791677     2.529531     2.407320
 C     3.606493     3.681955     0.060456
 H     3.454761     4.544682    -0.590175
 C     4.718809     3.632953     0.899000
Cl     5.870402     4.934830     0.879721
 C     3.699892    -2.662619    -0.918986
 O     3.125828    -2.457478    -2.117315
 C     3.542745    -3.182867    -3.236020
 H     2.925007    -2.836372    -4.073932
 H     4.605041    -2.995652    -3.472158
 H     3.388794    -4.267413    -3.100123
 C     3.656129    -2.157193     1.431174
 O     3.068049    -1.498210     2.460447
 C     3.398286    -1.855889     3.770688
 H     2.764243    -1.249431     4.429864
 H     4.455949    -1.643056     4.007624
 H     3.199348    -2.924019     3.967497
 C     4.674098    -3.098530     1.647305
 H     5.048067    -3.292418     2.651311
 C     4.713227    -3.603878    -0.715087
 H     5.106048    -4.189013    -1.545572
 C     5.201741    -3.800301     0.571462
 H     5.993884    -4.532808     0.743001
 C     3.667354     0.477790    -1.960440
 O     4.533865     0.146112    -0.991966
 C     5.876235     0.527850    -1.073018
 H     6.348146     0.177681    -0.146565
 H     6.384091     0.058017    -1.933091
 H     5.982909     1.624045    -1.136152
 C     1.377616     0.527870    -2.723658
 O     0.081877     0.297116    -2.484437
 C    -0.848415     0.408790    -3.529853
 H    -1.806583     0.088737    -3.110319
 H    -0.571368    -0.240789    -4.376861
 H    -0.941375     1.449998    -3.882171
 C     1.798722     1.153811    -3.909566
 H     1.072279     1.429887    -4.671377
 C     4.084489     1.118796    -3.131136
 H     5.133270     1.367882    -3.284012
 C     3.141625     1.440612    -4.099039
 H     3.461419     1.937087    -5.018636
 C    -4.125585     0.374426    -1.174180
 C    -4.621880     1.363945    -0.321595
 H    -3.978477     1.812754     0.436514
 C    -4.962192    -0.202776    -2.133338
 H    -4.553433    -0.988496    -2.771585
 C    -5.947784     1.772838    -0.435404
 H    -6.345838     2.542402     0.228122
 C    -6.283940     0.211627    -2.253757
 H    -6.942263    -0.234495    -3.001039
 C    -6.772921     1.200640    -1.401222
Cl    -8.424606     1.720226    -1.541476
 C    -3.449339     0.143104     2.601327
 O    -3.087669     1.437011     2.590958
 C    -3.236802     2.227003     3.734939
 H    -2.753079     3.185900     3.508132
 H    -4.299065     2.403873     3.978073
 H    -2.740485     1.773035     4.609972
 C    -3.648847    -1.934076     1.395964
 O    -3.441092    -2.577195     0.241255
 C    -3.738029    -3.939677     0.117173
 H    -3.371504    -4.241507    -0.871489
 H    -4.824485    -4.124938     0.172634
 H    -3.225652    -4.536797     0.890471
 C    -4.403172    -2.482173     2.440005
 H    -4.809703    -3.489468     2.361541
 C    -4.202897    -0.398969     3.650657
 H    -4.462178     0.209156     4.516059
 C    -4.653487    -1.710521     3.566698
 H    -5.243013    -2.129014     4.386006
 C    -0.501486     1.566261     1.740272
 O    -0.453250     0.428056     2.453564
 C     0.383481     0.335109     3.571777
 H     0.299107    -0.698771     3.929700
 H     1.428441     0.536995     3.293045
 H     0.061122     1.020859     4.375140
 C    -1.352063     2.607118    -0.265333
 O    -2.031577     2.482340    -1.420350
 C    -2.280996     3.609690    -2.207174
 H    -2.901702     3.268877    -3.045703
 H    -1.348918     4.049097    -2.604577
 H    -2.833892     4.385399    -1.649409
 C    -0.777394     3.822468     0.141335
 H    -0.869131     4.712274    -0.479781
 C     0.078929     2.767326     2.148714
 H     0.662849     2.825880     3.066120
 C    -0.077153     3.888389     1.340395
 H     0.380781     4.833560     1.640848
