  98
scf done:    -2760.481895
 C     1.286925    -0.235806     3.363699
 H     0.845195    -0.763429     4.218543
 H     2.347658    -0.495204     3.280172
 C     1.013067     1.246675     3.356458
 H     0.511980     1.615712     4.264330
 H     1.913759     1.848266     3.163909
 H     0.302471     1.532696     2.514528
Rh     0.096933    -0.388686     1.666970
 O     2.238403     1.482389    -0.505761
 C     3.568751     0.018197     1.168007
 C     2.231521    -1.246162    -1.021879
 O    -1.956167    -0.420461    -1.165920
 C    -3.402211    -0.272397     1.197082
 C    -2.027305     1.953067     0.207677
 P    -1.777506     0.137669     0.401483
 P     1.954103     0.013944     0.285658
 C    -0.502767    -2.018024     2.254065
 O    -0.761830    -3.106522     2.542279
 C     1.652459     2.076048    -1.577347
 C     1.608787     1.469638    -2.835957
 H     1.946552     0.440380    -2.950825
 C     1.212161     3.400579    -1.399576
 C     1.232553     4.013516    -0.034620
 H     0.833393     5.035923    -0.055382
 H     0.622830     3.423622     0.667259
 H     2.254363     4.044731     0.375381
 C     1.162562     2.194180    -3.940481
 H     1.140349     1.714977    -4.922078
 C     0.781229     4.103572    -2.526216
 H     0.450814     5.138189    -2.399648
 C     0.760472     3.518262    -3.791838
 H     0.421965     4.093850    -4.656219
 C     4.232601     1.233951     1.373482
 H     3.808931     2.144282     0.948596
 C     4.103004    -1.170817     1.713374
 C     3.434878    -2.507063     1.570054
 H     3.585768    -2.929502     0.564571
 H     2.347619    -2.430747     1.725591
 H     3.839641    -3.220109     2.301489
 C     5.428149     1.290960     2.083363
 H     5.931605     2.250182     2.225002
 C     5.309553    -1.087340     2.419590
 H     5.730044    -2.004705     2.840715
 C     5.974267     0.121248     2.604116
 H     6.913473     0.148208     3.161830
 C     1.236073    -2.219718    -1.138838
 H     0.376504    -2.161997    -0.467132
 C     3.376844    -1.302495    -1.852382
 C     4.513910    -0.325160    -1.773634
 H     5.182335    -0.571770    -0.933421
 H     4.169370     0.702940    -1.607711
 H     5.108878    -0.354254    -2.697132
 C     1.337831    -3.257055    -2.061159
 H     0.543495    -4.002320    -2.127529
 C     3.448768    -2.343211    -2.785194
 H     4.321548    -2.394996    -3.442146
 C     2.451313    -3.311929    -2.892626
 H     2.550448    -4.111786    -3.630842
 C    -2.064850    -1.737159    -1.514971
 C    -2.386971    -2.741291    -0.600613
 H    -2.554419    -2.500728     0.448401
 C    -1.842969    -2.042519    -2.871309
 C    -1.424820    -0.976805    -3.833935
 H    -1.185161    -1.410466    -4.814074
 H    -2.212649    -0.221604    -3.975269
 H    -0.537403    -0.442132    -3.462348
 C    -2.507637    -4.062747    -1.029080
 H    -2.754028    -4.837140    -0.299523
 C    -1.992195    -3.371027    -3.272607
 H    -1.823329    -3.616477    -4.324686
 C    -2.321947    -4.382097    -2.369832
 H    -2.424870    -5.413476    -2.713894
 C    -3.357769    -0.615838     2.553288
 H    -2.383430    -0.660978     3.046739
 C    -4.653776    -0.192934     0.542021
 C    -4.819736     0.219520    -0.889931
 H    -4.395956    -0.522136    -1.582744
 H    -4.318292     1.177440    -1.085019
 H    -5.884700     0.338930    -1.130272
 C    -4.514046    -0.902574     3.273502
 H    -4.446357    -1.166689     4.331113
 C    -5.800439    -0.504853     1.281424
 H    -6.770428    -0.458015     0.779070
 C    -5.743835    -0.857872     2.627232
 H    -6.664228    -1.090800     3.168188
 C    -2.127095     2.582495     1.460866
 H    -2.076423     1.976002     2.370049
 C    -2.111950     2.728449    -0.965637
 C    -2.019359     2.172192    -2.352193
 H    -2.835930     1.469648    -2.562471
 H    -1.083168     1.620444    -2.497200
 H    -2.054751     2.983048    -3.089789
 C    -2.301663     3.954289     1.579303
 H    -2.375498     4.412446     2.567838
 C    -2.296424     4.112647    -0.818025
 H    -2.363100     4.718969    -1.725003
 C    -2.388227     4.727853     0.423671
 H    -2.529163     5.809320     0.489140
