  80
scf done:    -3119.929124
 C    -1.224092    -3.794272    -0.176881
 H    -0.854112    -4.690619     0.334998
 H    -2.292625    -3.670427     0.030983
 C    -0.860326    -3.734822    -1.640726
 H    -0.350420    -4.637727    -2.008097
 H    -1.718366    -3.511824    -2.291800
 H    -0.115523    -2.896403    -1.857686
Rh    -0.000954    -2.131302     0.093340
 O    -1.953340     0.343630    -1.316183
 C    -3.482149    -1.500918    -0.105447
 C    -2.027277     0.379268     1.441321
 O     2.003074     0.244415     1.268501
 C     3.388102    -1.603764    -0.140917
 C     2.006863     0.460275    -1.495936
 P     1.793735    -0.706903    -0.111713
 P    -1.821844    -0.735384     0.007828
 C     0.784331    -2.966009     1.551155
 O     1.169456    -3.412650     2.540848
 C    -2.552331     1.568905    -1.293959
 C    -3.886866     1.721333    -1.677385
 H    -4.463364     0.844798    -1.975119
 C    -1.806492     2.687820    -0.913704
 H    -0.761987     2.551777    -0.630364
 C    -4.477137     2.983050    -1.662628
 H    -5.518724     3.126692    -1.955680
 C    -2.390262     3.949958    -0.896597
 H    -1.826465     4.835526    -0.598371
 C    -3.723636     4.081608    -1.267085
 F    -4.289656     5.287708    -1.247833
 C    -4.149321    -1.958816     1.037486
 H    -3.726922    -1.768698     2.027289
 C    -4.026522    -1.780883    -1.364696
 H    -3.502706    -1.443126    -2.262246
 C    -5.347577    -2.658741     0.930531
 H    -5.881966    -3.017186     1.812112
 C    -5.225528    -2.477803    -1.486493
 H    -5.665703    -2.698081    -2.460751
 C    -5.872172    -2.906306    -0.332930
 F    -7.018453    -3.571774    -0.441004
 C    -3.213960     1.096992     1.665411
 H    -4.074006     0.956861     1.008432
 C    -0.948990     0.563403     2.313878
 H    -0.027660     0.001246     2.151185
 C    -3.312493     1.995091     2.720657
 H    -4.224793     2.565025     2.904437
 C    -1.034563     1.461027     3.374959
 H    -0.198653     1.616212     4.059196
 C    -2.215219     2.169020     3.559376
 F    -2.305598     3.031086     4.566652
 C     2.680901     1.430660     1.317411
 C     1.986298     2.619358     1.083890
 H     0.919005     2.571694     0.862801
 C     4.041061     1.465394     1.630458
 H     4.574084     0.532750     1.818477
 C     2.649037     3.840897     1.141132
 H     2.127170     4.782051     0.959873
 C     4.709679     2.686058     1.688746
 H     5.772769     2.740560     1.929921
 C     4.007213     3.858542     1.437354
 F     4.647782     5.025118     1.487720
 C     3.965501    -2.007540    -1.350738
 H     3.516911    -1.704047    -2.299925
 C     3.974822    -2.014683     1.063208
 H     3.519963    -1.726279     2.013371
 C     5.115386    -2.792194    -1.363547
 H     5.580140    -3.112076    -2.297808
 C     5.128062    -2.792039     1.063595
 H     5.598856    -3.117045     1.993055
 C     5.683998    -3.171178    -0.153468
 F     6.785847    -3.915115    -0.159319
 C     3.219643     1.133453    -1.725814
 H     4.086837     0.936724    -1.093199
 C     0.918869     0.714090    -2.337828
 H    -0.032898     0.208265    -2.163627
 C     3.333432     2.055086    -2.757660
 H     4.264282     2.592814    -2.945483
 C     1.022748     1.632251    -3.380299
 H     0.179027     1.844597    -4.039015
 C     2.228183     2.294121    -3.571075
 F     2.336252     3.176258    -4.557642
