  40
scf done:    -1525.613830
 C    -1.421050    -2.365070    -0.568515
 H    -1.451446    -3.232053     0.110131
 H    -2.451222    -1.971934    -0.588579
 C    -1.000358    -2.803589    -1.965193
 H    -0.007751    -3.282372    -1.964484
 H    -1.708765    -3.530358    -2.406716
 H    -0.939139    -1.955382    -2.669210
Rh     0.028781    -0.915015     0.016590
 C    -2.286182     0.975541    -1.891533
 O    -3.066963     0.237115     0.479404
 O    -1.285225     2.075759     0.398785
 C     1.651503     1.700731     1.783202
 O     3.186135     0.266705     0.262604
 O     1.502453     1.782701    -0.954197
 P     1.589136     0.689419     0.279765
 P    -1.633286     0.594607    -0.243511
 C     0.948738    -2.304442     0.865313
 O     1.427568    -3.125049     1.511493
 H    -1.501875     1.502322    -2.454050
 H    -2.509271     0.025127    -2.396561
 H    -3.201827     1.581428    -1.843376
 C    -3.056359    -0.367209     1.758571
 H    -2.272010    -1.141091     1.817943
 H    -2.878474     0.382974     2.547139
 H    -4.042153    -0.825648     1.915542
 C    -2.219724     3.131292     0.379938
 H    -2.243488     3.629089    -0.604204
 H    -3.233473     2.777749     0.629263
 H    -1.905678     3.867029     1.133846
 H     1.735629     1.020509     2.642061
 H     2.505371     2.392538     1.783963
 H     0.699437     2.244769     1.847874
 C     3.640677    -0.626504    -0.730155
 H     2.918612    -1.445571    -0.894073
 H     3.803168    -0.106194    -1.689205
 H     4.594542    -1.051587    -0.388502
 C     2.347887     2.907853    -1.010881
 H     1.974123     3.722277    -0.367035
 H     3.379256     2.657561    -0.710672
 H     2.361025     3.264617    -2.050641
