  92
scf done:    -2728.984203
 C    -3.000689     0.045433     2.101667
 H    -3.137642     0.388033     3.134458
 H    -3.757865     0.527269     1.469091
 C    -2.981470    -1.463627     1.953229
 H    -2.968190    -1.990798     2.917429
 H    -3.808663    -1.848175     1.336715
 H    -2.057409    -1.823611     1.407993
Rh    -1.033508     0.097485     1.386258
 O    -3.203419     0.886320    -1.118154
 O    -1.967427     2.820657    -0.307806
 O    -0.728963     1.231287    -1.703018
 O     1.869363     0.726177    -0.094118
 O     2.033479    -1.372940     1.327430
 O     0.789205    -1.522010    -0.774788
 P     0.928541    -0.509271     0.481448
 P    -1.714209     1.219971    -0.416045
 C    -0.408250     0.686196     3.051398
 O    -0.034741     1.239323     3.990389
 C    -3.650460    -0.391444    -1.277470
 C    -5.010673    -0.631543    -1.068650
 H    -5.651255     0.203471    -0.779485
 C    -2.802027    -1.439660    -1.646896
 H    -1.738160    -1.253941    -1.811226
 C    -5.529235    -1.912764    -1.224950
 H    -6.588781    -2.121791    -1.067224
 C    -3.320212    -2.725138    -1.797384
 H    -2.680794    -3.561014    -2.083682
 C    -4.673146    -2.948413    -1.583491
 F    -5.163429    -4.181064    -1.728747
 C    -2.811363     3.443708     0.652786
 H    -3.173340     4.359890     0.159225
 H    -3.690675     2.809902     0.853383
 C    -2.077176     3.783333     1.934070
 H    -2.762482     4.380787     2.561183
 H    -1.875824     2.853841     2.488097
 C    -0.772217     4.534891     1.713675
 H    -0.969564     5.457735     1.138322
 H    -0.116395     3.916901     1.078691
 C    -0.059200     4.872167     3.012900
 H    -0.678840     5.516225     3.658088
 H     0.172120     3.958750     3.582872
 H     0.888233     5.400815     2.827658
 C    -0.955233     2.007625    -2.882787
 H    -0.482706     1.431064    -3.694289
 H    -2.036813     2.054376    -3.088351
 C    -0.357412     3.399283    -2.796868
 H    -0.482971     3.871328    -3.787934
 H    -0.949116     3.993851    -2.085303
 C     1.106470     3.423449    -2.383248
 H     1.714714     2.891381    -3.135663
 H     1.217069     2.851048    -1.448599
 C     1.643321     4.831434    -2.189035
 H     1.560519     5.430045    -3.111004
 H     1.084040     5.361239    -1.400747
 H     2.703376     4.820422    -1.893376
 C     2.923601     0.525837    -0.947121
 C     2.686382     0.269396    -2.298904
 H     1.654538     0.207364    -2.645135
 C     4.227535     0.620150    -0.464801
 H     4.389391     0.834174     0.592330
 C     3.758752     0.092248    -3.167657
 H     3.604489    -0.109987    -4.229112
 C     5.303986     0.447803    -1.331780
 H     6.335088     0.517469    -0.980911
 C     5.055330     0.181649    -2.672728
 F     6.082757     0.011889    -3.504686
 C     2.439252    -1.008460     2.639644
 H     2.798369     0.036684     2.643842
 H     1.574198    -1.066688     3.319903
 C     3.531859    -1.953577     3.084877
 H     3.761990    -1.730874     4.141195
 H     3.130599    -2.981971     3.065842
 C     4.800019    -1.879217     2.246373
 H     5.213987    -0.857046     2.310241
 H     4.536667    -2.031058     1.186835
 C     5.855773    -2.886627     2.669389
 H     6.156879    -2.738043     3.718988
 H     5.480078    -3.918531     2.578994
 H     6.761400    -2.808120     2.049310
 C     1.644141    -2.624094    -1.092641
 H     1.560650    -2.740013    -2.184592
 H     2.689407    -2.376590    -0.857270
 C     1.210398    -3.887568    -0.378971
 H     1.867446    -4.706890    -0.720832
 H     1.399993    -3.765358     0.699886
 C    -0.248491    -4.249043    -0.611706
 H    -0.420232    -4.379238    -1.695813
 H    -0.874480    -3.394579    -0.308209
 C    -0.691405    -5.495822     0.134351
 H    -0.109073    -6.380136    -0.171001
 H    -0.559736    -5.373921     1.221526
 H    -1.754254    -5.716589    -0.047221
