  96
scf done:    -3181.112558
 C    -2.005255     0.928039    -3.723860
 H    -1.949125     0.501612    -4.732106
 H    -3.038356     0.893769    -3.362482
 C    -1.346755     2.283384    -3.595312
 H    -0.939003     2.667087    -4.541890
 H    -2.007688     3.043875    -3.152204
 H    -0.446124     2.252092    -2.901842
Rh    -0.577611     0.189197    -2.398200
 O    -1.837513     0.610815     0.814745
 O    -3.590563     0.727792    -1.048383
 O    -2.494732    -1.440925    -0.383389
 O     1.396579    -1.503080    -0.277299
 O     2.696094     0.032521    -1.847465
 O     1.352911     1.007644     0.128978
 P     1.241199    -0.076917    -1.087886
 P    -2.090741     0.098191    -0.755812
 C    -0.158890    -1.146097    -3.636212
 O    -0.032704    -2.057945    -4.323920
 C    -1.267639     1.807564     1.145906
 C    -1.311068     2.922386     0.307188
 H    -1.836073     2.870621    -0.647525
 C    -0.634499     1.890338     2.386773
 H    -0.616431     1.010522     3.030706
 C    -0.682345     4.104753     0.692926
 H    -0.695272     4.986715     0.050222
 C    -0.012914     3.071029     2.776130
 H     0.507261     3.149844     3.731922
 C    -0.030487     4.163440     1.916777
 F     0.582099     5.290851     2.278483
 C    -4.745785     0.331161    -0.405717
 C    -5.334161    -0.882155    -0.760482
 H    -4.855632    -1.494369    -1.525332
 C    -5.319585     1.172072     0.558445
 C    -4.705397     2.491661     0.910288
 H    -3.834071     2.370225     1.572031
 H    -4.351059     3.018535     0.013066
 H    -5.431372     3.133414     1.427747
 C    -6.499610    -1.298415    -0.125482
 H    -6.952348    -2.254536    -0.396823
 C    -6.496948     0.730292     1.174303
 H    -6.964499     1.372735     1.925545
 C    -7.080555    -0.491819     0.850997
 H    -7.996046    -0.809132     1.355112
 C    -2.432075    -2.177540     0.773134
 C    -3.076754    -1.768636     1.938313
 H    -3.643391    -0.837484     1.941029
 C    -1.721953    -3.385500     0.700717
 C    -1.060705    -3.792955    -0.578893
 H    -1.785806    -3.829419    -1.406155
 H    -0.290166    -3.063078    -0.868261
 H    -0.588118    -4.779247    -0.479743
 C    -2.983260    -2.560218     3.081484
 H    -3.483466    -2.241282     3.998843
 C    -1.653993    -4.160349     1.861554
 H    -1.097679    -5.100846     1.831252
 C    -2.266087    -3.754273     3.046226
 H    -2.189169    -4.376931     3.940360
 C     1.725721    -1.697623     1.046199
 C     0.764968    -1.477578     2.031778
 H    -0.229239    -1.130183     1.751826
 C     2.997411    -2.158733     1.380403
 H     3.735422    -2.329136     0.596056
 C     1.080477    -1.706297     3.367700
 H     0.340938    -1.553340     4.155430
 C     3.315595    -2.387653     2.716893
 H     4.304604    -2.744780     3.008547
 C     2.355038    -2.155360     3.694477
 F     2.660554    -2.375125     4.973054
 C     3.869036    -0.624937    -1.525545
 C     4.832580     0.026010    -0.760067
 H     4.643894     1.041042    -0.411299
 C     4.074010    -1.918579    -2.030003
 C     3.044985    -2.582565    -2.888969
 H     2.144845    -2.835545    -2.307499
 H     2.723228    -1.920818    -3.705985
 H     3.437283    -3.509965    -3.326684
 C     6.018176    -0.631518    -0.441441
 H     6.768259    -0.122856     0.167871
 C     5.274741    -2.553239    -1.692863
 H     5.454202    -3.563725    -2.069501
 C     6.236332    -1.928719    -0.899785
 H     7.161885    -2.453113    -0.651895
 C     2.386984     1.764519     0.624163
 C     2.943660     1.419643     1.852335
 H     2.578572     0.532640     2.369435
 C     2.795736     2.903052    -0.084751
 C     2.169169     3.257096    -1.397174
 H     1.072948     3.201233    -1.329035
 H     2.449522     4.272991    -1.705650
 H     2.483788     2.558746    -2.189220
 C     3.954363     2.209337     2.392413
 H     4.396119     1.937790     3.353680
 C     3.812727     3.677372     0.484227
 H     4.149068     4.571134    -0.047731
 C     4.394058     3.339064     1.704813
 H     5.185187     3.965389     2.122646
