  98
scf done:    -2609.178739
 C    -2.108449    -0.346545    -2.612423
 H    -2.493726    -1.373438    -2.722715
 H    -2.954754     0.250337    -2.239164
 C    -1.671244     0.215277    -3.958554
 H    -0.915069    -0.413734    -4.454458
 H    -2.525206     0.303601    -4.655359
 H    -1.234958     1.223043    -3.865966
Rh    -0.497455    -0.357883    -1.196318
 O    -1.936586     0.766243     1.797381
 O    -2.972771     1.708396    -0.183477
 O    -3.308909    -0.726954     0.244869
 O     1.654070    -1.499179     1.150282
 O     2.753539     0.118627    -0.476436
 O     1.259528     0.946885     1.307548
 P     1.281608    -0.199639     0.174484
 P    -2.125815     0.368297     0.193510
 C     0.204352    -1.637610    -2.365435
 O     0.491746    -2.531384    -3.026204
 C    -1.310673     0.029032     2.761776
 C    -1.258204    -1.361200     2.718325
 H    -1.718700    -1.892754     1.884538
 C    -0.750789     0.752389     3.827609
 C    -0.831187     2.247003     3.834311
 H    -0.354397     2.667369     2.935045
 H    -1.877813     2.590469     3.826902
 H    -0.337116     2.666918     4.721273
 C    -0.613436    -2.055221     3.741001
 H    -0.560181    -3.145546     3.701560
 C    -0.122594     0.029155     4.841855
 H     0.319479     0.576283     5.679487
 C    -0.042934    -1.363842     4.803770
 H     0.461689    -1.904956     5.606908
 C    -2.583456     3.021851     0.206211
 H    -3.254019     3.691702    -0.353701
 H    -2.789798     3.147705     1.281259
 C    -1.133538     3.348082    -0.089440
 H    -0.956562     4.385077     0.247075
 H    -0.482896     2.710747     0.534034
 C    -0.736987     3.194938    -1.548690
 H    -1.399290     3.811604    -2.181390
 H    -0.910935     2.146644    -1.854709
 C     0.717188     3.545245    -1.804445
 H     0.949622     4.579570    -1.502505
 H     1.384044     2.875586    -1.239944
 H     0.970815     3.443460    -2.869733
 C    -4.567181    -0.483034     0.879591
 H    -4.796752    -1.397090     1.450033
 H    -4.471131     0.347985     1.595789
 C    -5.638030    -0.197991    -0.150894
 H    -6.584165    -0.008486     0.387107
 H    -5.377390     0.739925    -0.668871
 C    -5.824679    -1.318286    -1.164339
 H    -6.112944    -2.244001    -0.634776
 H    -4.852218    -1.528567    -1.637749
 C    -6.856331    -0.988860    -2.230181
 H    -7.846588    -0.790331    -1.788411
 H    -6.564063    -0.091653    -2.799257
 H    -6.972417    -1.813532    -2.949527
 C     2.317044    -2.602968     0.673364
 C     3.712247    -2.588599     0.646083
 H     4.230047    -1.691381     0.989244
 C     1.589650    -3.729931     0.256178
 C     0.095836    -3.774474     0.352270
 H    -0.217245    -3.922266     1.398022
 H    -0.366560    -2.835838     0.006253
 H    -0.309703    -4.602261    -0.244903
 C     4.413481    -3.695267     0.176454
 H     5.505646    -3.678897     0.155250
 C     2.321475    -4.824581    -0.218499
 H     1.774091    -5.707723    -0.558659
 C     3.713625    -4.815810    -0.266106
 H     4.251355    -5.687846    -0.644874
 C     3.208932    -0.399802    -1.722920
 H     4.253639    -0.708907    -1.559312
 H     2.651567    -1.309538    -1.990595
 C     3.120305     0.631064    -2.825332
 H     3.424532     0.136955    -3.765105
 H     2.062117     0.919966    -2.956900
 C     3.985621     1.860577    -2.586639
 H     5.022586     1.535058    -2.388466
 H     3.649622     2.363878    -1.664944
 C     3.973548     2.840716    -3.747795
 H     4.357336     2.373769    -4.669134
 H     2.953431     3.195582    -3.961456
 H     4.594824     3.724683    -3.538495
 C     2.338625     1.161909     2.224584
 H     1.865432     1.340161     3.201692
 H     2.933191     0.240794     2.312344
 C     3.193175     2.335823     1.798405
 H     4.037061     2.413984     2.506772
 H     3.631017     2.104007     0.814101
 C     2.440601     3.657450     1.738718
 H     2.093441     3.926564     2.752191
 H     1.530390     3.518671     1.134922
 C     3.268421     4.789150     1.153655
 H     4.185977     4.964293     1.738465
 H     3.576157     4.558238     0.120771
 H     2.704661     5.734081     1.127912
