  84
scf done:    -3023.963116
 C    -1.685034     0.567422    -3.858835
 H    -1.645558    -0.037601    -4.771621
 H    -2.732787     0.710575    -3.569447
 C    -0.865393     1.837182    -3.925023
 H    -0.279644     1.934182    -4.849735
 H    -1.463676     2.750753    -3.782027
 H    -0.093380     1.886534    -3.090085
Rh    -0.425816    -0.072817    -2.324774
 O    -2.559598     1.446652    -0.030427
 O    -3.557438    -0.339749    -1.424265
 O    -1.842228    -0.968714     0.407603
 O     1.816843    -1.761609    -0.513632
 O     2.602664     0.536181    -1.304642
 O     0.990330     0.354636     0.668103
 P     1.235719    -0.255649    -0.834018
 P    -2.080763     0.064555    -0.854926
 C     0.170163    -1.519856    -3.367626
 O     0.465030    -2.490438    -3.904705
 C    -1.648549     2.383749     0.381501
 C    -1.335332     3.451734    -0.459251
 H    -1.804126     3.507910    -1.442768
 C    -1.062065     2.287430     1.643891
 H    -1.291000     1.432876     2.282230
 C    -0.444606     4.435578    -0.035064
 H    -0.186479     5.283969    -0.671308
 C    -0.170126     3.265185     2.072524
 H     0.311656     3.202977     3.049556
 C     0.123369     4.328214     1.227899
 F     0.987861     5.264551     1.632463
 C    -4.771849    -0.378565    -0.774639
 C    -5.437331     0.797482    -0.435393
 H    -4.976630     1.757891    -0.664698
 C    -5.337342    -1.624418    -0.510711
 H    -4.792569    -2.524512    -0.798885
 C    -6.666990     0.715507     0.215319
 H    -7.189030     1.634759     0.491812
 C    -6.564803    -1.692704     0.140604
 H    -7.000775    -2.668932     0.364218
 C    -7.230486    -0.524450     0.512544
 H    -8.191907    -0.580995     1.027614
 C    -2.712905    -1.437941     1.360667
 C    -2.735497    -2.818742     1.556473
 H    -2.096127    -3.446623     0.932660
 C    -3.511177    -0.595701     2.135822
 H    -3.496227     0.479444     1.963579
 C    -3.579508    -3.362936     2.521221
 H    -3.600144    -4.445287     2.669592
 C    -4.359242    -1.154880     3.088335
 H    -5.000603    -0.497469     3.679588
 C    -4.399402    -2.534387     3.286286
 H    -5.068000    -2.962678     4.035993
 C     3.139873    -2.126768    -0.415265
 C     3.716669    -2.338112     0.835930
 H     3.121676    -2.192707     1.737583
 C     3.881747    -2.318595    -1.581026
 H     3.405679    -2.160339    -2.550004
 C     5.051185    -2.726997     0.922297
 H     5.528553    -2.896519     1.888840
 C     5.217037    -2.702052    -1.497276
 H     5.821864    -2.854984    -2.392663
 C     5.786998    -2.898395    -0.243950
 F     7.065420    -3.264713    -0.160645
 C     3.369694     1.387738    -0.545825
 C     4.646262     0.993838    -0.150873
 H     5.016143     0.008029    -0.435080
 C     2.868280     2.642998    -0.204621
 H     1.862949     2.922253    -0.523349
 C     5.418329     1.867285     0.613165
 H     6.418294     1.560367     0.928488
 C     3.644284     3.503804     0.568184
 H     3.237167     4.474909     0.856881
 C     4.920136     3.117190     0.981490
 H     5.527061     3.792495     1.588523
 C     1.379455    -0.129196     1.892275
 C     2.368795     0.540917     2.610285
 H     2.847035     1.419228     2.176410
 C     0.740481    -1.249512     2.422942
 H    -0.034415    -1.744387     1.839061
 C     2.733599     0.063692     3.867845
 H     3.514088     0.582387     4.429415
 C     1.115582    -1.715451     3.681103
 H     0.616901    -2.594558     4.095762
 C     2.115498    -1.065581     4.405387
 H     2.408263    -1.435213     5.390553
