  96
scf done:    -3181.103574
 C    -1.467480    -4.172029    -0.213899
 H    -1.107705    -5.140076     0.164777
 H    -2.376290    -3.935249     0.360203
 C    -1.755299    -4.273432    -1.705891
 H    -2.486623    -5.073826    -1.927504
 H    -2.161144    -3.337322    -2.125548
 H    -0.847401    -4.508240    -2.285160
Rh    -0.027659    -2.633824     0.019399
 O    -2.288044    -0.660713    -1.504183
 O    -3.102794    -1.591720     0.728678
 O    -1.351098     0.267410     0.694167
 O     1.941229    -0.348635     1.467706
 O     3.051526    -1.689811    -0.396959
 O     1.432521     0.225382    -0.971953
 P     1.583488    -1.076225     0.032752
 P    -1.720057    -1.158820    -0.038839
 C     1.073643    -3.937715     0.798511
 O     1.704163    -4.690545     1.388435
 C    -2.546045     0.631037    -1.900424
 C    -3.862407     1.072831    -2.021403
 H    -4.684845     0.396184    -1.787422
 C    -1.478332     1.476091    -2.200759
 H    -0.460000     1.098773    -2.102219
 C    -4.110487     2.381528    -2.429053
 H    -5.129773     2.758138    -2.530002
 C    -1.723985     2.787315    -2.597742
 H    -0.904544     3.472540    -2.821440
 C    -3.039780     3.224585    -2.704334
 F    -3.280868     4.480133    -3.083093
 C    -4.396594    -1.346567     0.325155
 C    -4.946612    -2.095227    -0.713577
 H    -4.338417    -2.854619    -1.207572
 C    -5.154961    -0.376224     0.974231
 H    -4.714935     0.199190     1.788911
 C    -6.255032    -1.847316    -1.117597
 H    -6.676195    -2.429897    -1.941422
 C    -6.464127    -0.145053     0.558834
 H    -7.051265     0.625099     1.066380
 C    -7.038011    -0.866792    -0.494207
 C    -8.457178    -0.625434    -0.919864
 H    -8.584576    -0.772279    -2.002391
 H    -8.784875     0.394310    -0.671827
 H    -9.145119    -1.323132    -0.413570
 C    -2.116987     0.996636     1.573635
 C    -2.272192     0.552283     2.885218
 H    -1.808299    -0.387499     3.189241
 C    -2.687750     2.196141     1.158672
 H    -2.553618     2.530557     0.129542
 C    -3.032536     1.305328     3.773974
 H    -3.163374     0.946387     4.798437
 C    -3.440321     2.939852     2.064965
 H    -3.895836     3.876186     1.731673
 C    -3.633292     2.509865     3.382574
 C    -4.430451     3.325244     4.358847
 H    -3.768767     3.925334     5.005537
 H    -5.035129     2.685873     5.018929
 H    -5.106979     4.022178     3.844195
 C     3.185939    -0.171672     2.021312
 C     3.754659     1.100898     2.054216
 H     3.217009     1.942362     1.616628
 C     3.855512    -1.262564     2.577326
 H     3.394686    -2.251208     2.543545
 C     5.006962     1.281847     2.635844
 H     5.475960     2.266550     2.672548
 C     5.110199    -1.085090     3.153543
 H     5.658285    -1.922042     3.589466
 C     5.672113     0.186741     3.173966
 F     6.873368     0.359346     3.725210
 C     3.980733    -1.158949    -1.257160
 C     5.165975    -0.625810    -0.756975
 H     5.339591    -0.614763     0.319196
 C     3.745355    -1.186809    -2.630707
 H     2.812530    -1.611937    -3.005334
 C     6.103428    -0.098764    -1.640983
 H     7.027197     0.327274    -1.240174
 C     4.691772    -0.651449    -3.499715
 H     4.494935    -0.665213    -4.575183
 C     5.885783    -0.094238    -3.024070
 C     6.914040     0.455612    -3.969519
 H     7.511508     1.249390    -3.498292
 H     6.448932     0.869281    -4.876093
 H     7.614722    -0.332485    -4.292632
 C     1.844799     1.523351    -0.741749
 C     2.963950     2.026858    -1.398855
 H     3.536618     1.384746    -2.067830
 C     1.098269     2.338732     0.107490
 H     0.226609     1.922548     0.609108
 C     3.343732     3.349193    -1.179833
 H     4.230778     3.734219    -1.690131
 C     1.492339     3.657450     0.312190
 H     0.904794     4.285594     0.987367
 C     2.622932     4.188435    -0.322305
 C     3.025784     5.619505    -0.114683
 H     4.099785     5.767067    -0.297763
 H     2.802932     5.957022     0.908084
 H     2.481190     6.287152    -0.803273
