  86
scf done:    -2603.355479
 C    -2.319675     0.820087    -2.488603
 H    -2.228117     0.679789    -3.572232
 H    -3.277408     0.409551    -2.145112
 C    -2.039026     2.222606    -2.014602
 H    -1.712345     2.905461    -2.811655
 H    -2.870191     2.672984    -1.452524
 H    -1.184677     2.247251    -1.249124
Rh    -0.638516     0.276516    -1.382645
 O    -2.866014    -0.220806     1.293911
 C    -3.196893    -1.974332    -0.717094
 C    -1.075666    -2.146917     1.099871
 O     2.181165    -1.012909    -0.203062
 C     2.475430     1.682357    -0.699930
 C     1.210324     0.747052     1.648272
 P     1.285988     0.403708    -0.145530
 P    -1.921156    -0.902313     0.062753
 C     0.256568    -0.398789    -2.870589
 O     0.779934    -0.983208    -3.716817
 C    -3.315602     1.061812     1.150181
 C    -4.534366     1.317058     0.521623
 H    -5.116801     0.482182     0.126748
 C    -2.553949     2.118848     1.646543
 H    -1.600446     1.900420     2.129605
 C    -4.984267     2.629771     0.397777
 H    -5.938946     2.821080    -0.100170
 C    -3.015334     3.424843     1.513008
 H    -2.407067     4.247138     1.901016
 C    -4.236630     3.707445     0.887904
 C    -4.739746     5.117499     0.773142
 H    -5.417382     5.235359    -0.084789
 H    -3.912157     5.832280     0.654369
 H    -5.299862     5.414418     1.675855
 C    -3.007779    -2.430152    -2.024539
 C    -4.326275    -2.385799     0.000312
 C    -5.060234    -3.697149    -1.891895
 C    -5.256112    -3.239338    -0.588403
 C    -3.933781    -3.293915    -2.607006
 H    -2.133123    -2.088057    -2.583911
 H    -3.778053    -3.645484    -3.629811
 H    -5.790242    -4.367836    -2.351770
 H    -6.138632    -3.552491    -0.024862
 H    -4.472109    -2.028655     1.022308
 C    -1.382108    -2.323888     2.452817
 C    -0.081756    -2.930809     0.503912
 C     0.307852    -4.046513     2.610611
 C     0.608404    -3.875999     1.258408
 C    -0.690616    -3.273287     3.203223
 H    -2.147344    -1.697944     2.914329
 H    -0.928492    -3.404128     4.262010
 H     0.854057    -4.784310     3.203603
 H     1.394531    -4.472230     0.789591
 H     0.175133    -2.770606    -0.545912
 C     3.547878    -1.084287    -0.168108
 C     4.218461    -1.328796     1.028168
 H     3.648577    -1.445638     1.950441
 C     4.269307    -0.938564    -1.354433
 H     3.727016    -0.751795    -2.283465
 C     5.610361    -1.410645     1.032191
 H     6.129272    -1.599607     1.976112
 C     5.656134    -1.019711    -1.332804
 H     6.211359    -0.895275    -2.266742
 C     6.355089    -1.253646    -0.140543
 C     7.853129    -1.354078    -0.135661
 H     8.255027    -1.336335     0.887241
 H     8.313270    -0.525675    -0.696001
 H     8.191116    -2.290813    -0.608837
 C     2.291579     2.291057    -1.945702
 C     3.595803     2.025910     0.072048
 C     4.330302     3.548891    -1.651520
 C     4.519777     2.949209    -0.405427
 C     3.213678     3.223912    -2.418448
 H     1.416067     2.021308    -2.542893
 H     3.058567     3.695440    -3.391626
 H     5.056950     4.275368    -2.023808
 H     5.394739     3.201287     0.198137
 H     3.749027     1.562848     1.048892
 C     1.024147     2.065354     2.088008
 C     1.215730    -0.292543     2.582932
 C     0.863283     1.295318     4.371816
 C     1.044466    -0.016271     3.938692
 C     0.854124     2.337063     3.442733
 H     1.015103     2.885446     1.364773
 H     0.714369     3.368306     3.775948
 H     0.727746     1.508799     5.434701
 H     1.045051    -0.839381     4.656985
 H     1.344394    -1.323172     2.247673
