  80
scf done:    -3443.730673
 C    -2.612712    -0.642458    -2.874902
 H    -2.854048    -1.676791    -3.167928
 H    -3.519873    -0.251495    -2.385619
 C    -2.278962     0.200140    -4.096153
 H    -1.453751    -0.229827    -4.686491
 H    -3.147513     0.301264    -4.773530
 H    -1.976137     1.227201    -3.826246
Rh    -0.994557    -0.557750    -1.525296
 O    -2.924166     0.759957     1.025707
 C    -4.123657    -1.315867    -0.093756
 C    -1.886484    -1.666251     1.588817
 O     1.743462    -1.518522     0.008721
 C     2.103147     0.908217    -1.318954
 C     1.008348     0.778150     1.285727
 P     0.926998    -0.084683    -0.327049
 P    -2.457341    -0.632243     0.196334
 C    -0.039025    -1.611932    -2.729066
 O     0.507002    -2.424880    -3.332889
 C    -2.345611     1.973653     0.815498
 C    -2.225617     2.821171     1.917166
 H    -2.572928     2.471314     2.890406
 C    -1.912319     2.402906    -0.443530
 H    -2.044638     1.758722    -1.319164
 C    -1.649230     4.077558     1.774274
 H    -1.539247     4.738328     2.635264
 C    -1.309506     3.650097    -0.583463
 H    -0.945211     3.979906    -1.557766
 C    -1.171118     4.477795     0.528173
Cl    -0.357199     6.002801     0.373137
 C    -4.214461    -2.601895    -0.639486
 C    -5.287637    -0.595949     0.183855
 C    -6.623519    -2.446916    -0.612641
 C    -6.534759    -1.163930    -0.077829
 C    -5.460216    -3.165907    -0.892703
 H    -3.302306    -3.157259    -0.876264
 H    -5.524917    -4.170333    -1.317516
 H    -7.601732    -2.888848    -0.816579
 H    -7.443215    -0.596812     0.139285
 H    -5.212053     0.407195     0.606871
 C    -1.009322    -2.721940     1.319813
 C    -2.295837    -1.414076     2.902030
 C    -0.933670    -3.255660     3.674013
 C    -1.813543    -2.204918     3.941556
 C    -0.537691    -3.517648     2.362693
 H    -0.666293    -2.887113     0.294525
 H     0.156758    -4.333413     2.149412
 H    -0.554331    -3.871897     4.492855
 H    -2.124039    -1.999874     4.969066
 H    -2.975418    -0.583779     3.104151
 C     3.095298    -1.641032     0.154263
 C     3.694540    -1.520682     1.409152
 H     3.077277    -1.309453     2.282634
 C     3.874015    -1.918545    -0.970996
 H     3.384064    -2.015237    -1.941755
 C     5.074589    -1.658044     1.534879
 H     5.555907    -1.562861     2.509501
 C     5.251971    -2.057830    -0.849002
 H     5.869987    -2.269377    -1.722841
 C     5.847621    -1.919472     0.404606
Cl     7.566522    -2.080856     0.560260
 C     1.727174     1.295524    -2.610715
 C     3.358028     1.301461    -0.826944
 C     3.838052     2.425025    -2.910522
 C     4.222087     2.045860    -1.623398
 C     2.587511     2.056175    -3.400935
 H     0.748497     0.991958    -2.994542
 H     2.278775     2.356591    -4.404756
 H     4.517189     3.014544    -3.531316
 H     5.200956     2.335295    -1.234479
 H     3.661320     1.029055     0.185714
 C     1.212779     2.162212     1.351094
 C     0.787510     0.064683     2.472054
 C     1.005013     2.100624     3.756300
 C     0.788343     0.724016     3.698487
 C     1.214361     2.817219     2.580029
 H     1.373488     2.738586     0.438462
 H     1.373395     3.897647     2.609035
 H     1.008347     2.615472     4.720135
 H     0.617476     0.152579     4.613893
 H     0.622615    -1.013374     2.437650
