  90
scf done:    -3300.916003
 C     1.549421    -3.937691    -1.336793
 H     1.542765    -4.420779    -2.320403
 H     2.587559    -3.804425    -1.011191
 C     0.646443    -4.601466    -0.319698
 H     0.088337    -5.459040    -0.721877
 H     1.176176    -4.914184     0.593656
 H    -0.160398    -3.893122     0.054112
Rh     0.353128    -2.235330    -1.190708
 O     2.350178    -1.065419     1.421620
 O     3.499446    -1.485106    -0.737163
 O     1.853692     0.511169    -0.521087
 O    -1.557749     0.415027    -1.828690
 O    -2.764201    -1.504137    -0.625605
 O    -1.230827     0.054123     0.684276
 P    -1.287228    -0.775662    -0.730492
 P     1.996824    -1.109375    -0.217827
 C    -0.125082    -2.380098    -3.002362
 O    -0.334233    -2.336763    -4.130552
 C     1.313427    -0.976164     2.322633
 C     0.609263    -2.119094     2.691976
 H     0.896337    -3.083134     2.269633
 C     0.972136     0.260871     2.866410
 H     1.517205     1.155247     2.562215
 C    -0.446507    -2.013782     3.595885
 H    -0.991769    -2.916570     3.886129
 C    -0.082345     0.349737     3.766946
 H    -0.352106     1.327749     4.174324
 C    -0.819572    -0.780782     4.140347
 C    -1.981206    -0.655669     5.081997
 H    -2.801147    -0.082408     4.619170
 H    -1.697441    -0.126312     6.004577
 H    -2.378971    -1.640067     5.367043
 C     4.727533    -0.983780    -0.369676
 C     5.264876    -1.239663     0.890350
 H     4.691992    -1.824615     1.608991
 C     5.445380    -0.251854    -1.314449
 H     5.003884    -0.077423    -2.296499
 C     6.512789    -0.717135     1.222046
 H     6.957127    -0.891281     2.203643
 C     6.691437     0.269503    -0.985862
 H     7.267330     0.860731    -1.699665
 C     7.206807     0.037405     0.284588
 F     8.396239     0.544486     0.607463
 C     2.818419     1.488376    -0.503515
 C     2.968570     2.249854    -1.661846
 H     2.335826     2.025847    -2.522561
 C     3.601384     1.751154     0.622373
 H     3.489253     1.139786     1.516617
 C     3.922028     3.263119    -1.709243
 H     4.063837     3.870352    -2.604994
 C     4.561739     2.756536     0.573572
 H     5.202954     2.967053     1.431009
 C     4.713648     3.498605    -0.591732
 F     5.636370     4.458183    -0.637630
 C    -2.776096     0.825582    -2.322899
 C    -3.346493     2.014852    -1.877503
 H    -2.831954     2.612514    -1.125136
 C    -3.417456     0.054200    -3.290547
 H    -2.950335    -0.869456    -3.636653
 C    -4.577715     2.415128    -2.391152
 H    -5.023900     3.345725    -2.030180
 C    -4.649562     0.467073    -3.788722
 H    -5.152671    -0.148628    -4.539235
 C    -5.255973     1.650915    -3.347775
 C    -6.571902     2.101695    -3.912074
 H    -7.220004     1.247641    -4.157204
 H    -6.425841     2.676961    -4.841614
 H    -7.111830     2.750747    -3.207829
 C    -3.748851    -1.269042     0.301720
 C    -4.904064    -0.582648    -0.070470
 H    -5.006425    -0.212167    -1.090901
 C    -3.601230    -1.759058     1.599541
 H    -2.684776    -2.283823     1.872525
 C    -5.911423    -0.370411     0.867333
 H    -6.823911     0.167187     0.604171
 C    -4.606881    -1.547768     2.538858
 H    -4.516179    -1.916556     3.561708
 C    -5.749920    -0.851530     2.161268
 F    -6.712110    -0.644853     3.059892
 C    -1.547916     1.365121     0.934881
 C    -2.683482     1.667599     1.683893
 H    -3.330580     0.861403     2.028815
 C    -0.698020     2.377143     0.489917
 H     0.186411     2.108763    -0.086922
 C    -2.980097     2.995691     1.979505
 H    -3.864428     3.262222     2.560867
 C    -0.994131     3.705850     0.781567
 H    -0.347531     4.517197     0.442877
 C    -2.134018     3.999542     1.521915
 F    -2.419623     5.270366     1.803143
