 100
scf done:    -3305.879652
 C    -2.926939     1.014824    -2.338208
 H    -3.411658     0.363267    -3.084944
 H    -3.692731     1.204636    -1.567982
 C    -2.527645     2.344545    -2.965258
 H    -1.856620     2.212461    -3.829154
 H    -3.408671     2.910323    -3.322149
 H    -2.003471     2.996256    -2.247684
Rh    -1.193419     0.087986    -1.515140
 O    -3.177525     1.303640     0.918903
 C    -4.002497    -1.110929     0.090271
 C    -1.843893    -0.778141     1.958363
 O     1.009753    -0.168157     0.972591
 C     1.579799    -2.140270    -0.855483
 C     2.166507     0.633927    -1.406638
 P     0.855281    -0.457798    -0.699848
 P    -2.483684    -0.134114     0.366471
 C    -0.755223    -0.283012    -3.286388
 O    -0.583757    -0.615374    -4.374249
 C    -2.571188     2.496945     0.683671
 C    -1.179702     2.639103     0.652226
 H    -0.533365     1.779985     0.845056
 C    -3.386135     3.608820     0.463578
 H    -4.469298     3.477908     0.486630
 C    -0.613140     3.881170     0.376501
 H     0.471320     4.000512     0.339751
 C    -2.821633     4.851875     0.200006
 H    -3.454102     5.722126     0.018277
 C    -1.433868     4.982602     0.147435
Cl    -0.724828     6.526733    -0.200154
 H    -4.461580    -0.689417    -0.817554
 H    -3.647964    -2.117039    -0.194272
 C    -5.001518    -1.168633     1.236702
 H    -4.547962    -1.667990     2.110269
 H    -5.239440    -0.141585     1.560006
 C    -6.283999    -1.897856     0.859589
 H    -6.038554    -2.920169     0.518122
 H    -6.745388    -1.396396    -0.010328
 C    -7.295196    -1.972742     1.995127
 H    -6.829409    -2.474936     2.861760
 H    -7.530162    -0.948921     2.336016
 C    -8.578116    -2.693706     1.614440
 H    -9.288009    -2.731710     2.454494
 H    -8.376129    -3.731072     1.302320
 H    -9.083844    -2.191569     0.774061
 H    -1.003149    -0.122327     2.228332
 H    -2.623827    -0.649810     2.725453
 C    -1.360184    -2.217762     1.866939
 H    -2.219843    -2.904829     1.776209
 H    -0.779226    -2.342255     0.936941
 C    -0.496115    -2.627456     3.050741
 H    -1.092725    -2.579457     3.979419
 H     0.308764    -1.882201     3.174623
 C     0.118649    -4.012380     2.909787
 H    -0.684228    -4.761641     2.794012
 H     0.696800    -4.055177     1.968127
 C     1.015736    -4.393228     4.076399
 H     1.454233    -5.394001     3.945430
 H     0.455832    -4.396576     5.025154
 H     1.845019    -3.676199     4.191661
 C     2.195842    -0.004846     1.621194
 C     2.689507     1.284194     1.836292
 H     2.100772     2.141882     1.506084
 C     2.914463    -1.109437     2.087331
 H     2.505189    -2.111554     1.952565
 C     3.927479     1.468451     2.442677
 H     4.330326     2.471127     2.593799
 C     4.152758    -0.930579     2.696762
 H     4.730036    -1.788065     3.046080
 C     4.665152     0.357295     2.850393
Cl     6.231551     0.579925     3.554252
 H     2.614931    -2.133480    -0.478760
 H     0.994866    -2.797788    -0.192003
 C     1.526904    -2.659879    -2.286513
 H     0.476424    -2.700980    -2.617663
 H     2.027022    -1.949171    -2.968285
 C     2.166555    -4.032542    -2.440546
 H     1.669791    -4.743775    -1.755427
 H     3.220692    -3.986371    -2.110651
 C     2.103583    -4.570811    -3.863013
 H     1.049107    -4.607499    -4.188022
 H     2.597553    -3.853596    -4.542028
 C     2.737698    -5.943518    -4.017056
 H     2.677023    -6.304276    -5.054840
 H     2.238654    -6.688658    -3.376652
 H     3.802267    -5.927040    -3.732614
 H     1.896145     0.753241    -2.468335
 H     1.969429     1.623019    -0.957774
 C     3.635230     0.246371    -1.257524
 H     3.837983    -0.142768    -0.248789
 H     3.870818    -0.579730    -1.950152
 C     4.581198     1.411711    -1.511904
 H     4.287915     2.256349    -0.861892
 H     4.461320     1.774654    -2.548736
 C     6.040065     1.066805    -1.246965
 H     6.140292     0.724713    -0.201180
 H     6.330519     0.205393    -1.874333
 C     6.989192     2.227224    -1.496903
 H     8.033609     1.949180    -1.290141
 H     6.742222     3.088659    -0.855580
 H     6.936367     2.570788    -2.542515
