 102
scf done:    -3061.311499
 C    -1.496755    -0.366290    -3.771373
 H    -1.374689    -1.042234    -4.630774
 H    -2.459543    -0.621864    -3.304289
 C    -1.493752     1.080939    -4.243464
 H    -2.273009     1.259290    -5.007943
 H    -1.682267     1.791373    -3.422332
 H    -0.531151     1.365238    -4.699446
Rh     0.072572    -0.546513    -2.364924
 O    -0.923926     1.832922    -0.318730
 O    -2.922621     0.474464    -1.114929
 O    -1.350224    -0.384168     0.675812
 O     3.070264    -1.522942    -1.413832
 O     2.714978     0.901602    -0.901851
 O     1.641494    -0.876193     0.584680
 P     1.856469    -0.505175    -1.002604
 P    -1.309350     0.330975    -0.802885
 C     0.753788    -1.871604    -3.498793
 O     1.105945    -2.754835    -4.135914
 C    -1.524579     2.582220     0.666827
 C    -1.166666     2.374162     1.995595
 H    -0.442920     1.593873     2.232642
 C    -2.425732     3.584957     0.282519
 C    -2.769790     3.787801    -1.159914
 H    -1.855338     3.899011    -1.761859
 H    -3.310113     2.917107    -1.562438
 H    -3.395103     4.680473    -1.294463
 C    -1.730664     3.172276     2.987614
 H    -1.451006     3.013873     4.031628
 C    -2.972695     4.372791     1.301822
 H    -3.676901     5.163979     1.030661
 C    -2.638443     4.171689     2.640796
 H    -3.082764     4.803979     3.412796
 C    -3.927715    -0.111166    -0.374331
 C    -4.345926    -1.394184    -0.711063
 H    -3.862851    -1.902173    -1.549050
 C    -4.498679     0.580201     0.691494
 H    -4.146847     1.583186     0.938731
 C    -5.332937    -2.036979     0.042335
 C    -5.720392    -3.451602    -0.272748
 H    -5.854201    -3.601767    -1.354415
 H    -4.929085    -4.144112     0.058420
 H    -6.653291    -3.737884     0.232779
 C    -5.496972    -0.048927     1.430284
 H    -5.957087     0.478331     2.269463
 C    -5.906019    -1.344278     1.114700
 H    -6.684443    -1.828210     1.710655
 C    -1.642843    -1.696228     0.963599
 C    -2.422145    -1.919190     2.094049
 H    -2.780411    -1.054388     2.656304
 C    -1.171148    -2.756028     0.190379
 H    -0.556463    -2.552882    -0.691344
 C    -2.777581    -3.219464     2.463886
 C    -3.664687    -3.444479     3.652885
 H    -3.264202    -2.950813     4.551745
 H    -4.666800    -3.022946     3.471524
 H    -3.780833    -4.514439     3.874379
 C    -1.520971    -4.051383     0.561346
 H    -1.161907    -4.892486    -0.036687
 C    -2.316963    -4.284981     1.682226
 H    -2.584679    -5.308603     1.956713
 C     4.202787    -1.714844    -0.648691
 C     5.282976    -0.850349    -0.807535
 H     5.202854    -0.038166    -1.531064
 C     4.231366    -2.789521     0.250841
 C     3.067798    -3.725629     0.370181
 H     2.216142    -3.242431     0.873301
 H     2.712784    -4.038306    -0.623356
 H     3.343984    -4.620942     0.943105
 C     6.422840    -1.027084    -0.027152
 H     7.271471    -0.349142    -0.143010
 C     5.388839    -2.939410     1.021954
 H     5.437182    -3.764808     1.737162
 C     6.470407    -2.069207     0.897220
 H     7.358439    -2.214369     1.516563
 C     2.094857     2.119884    -1.097109
 C     1.956974     2.977639    -0.009725
 H     2.322094     2.651254     0.966530
 C     1.628551     2.469666    -2.361078
 H     1.756279     1.779747    -3.198298
 C     1.329946     4.216356    -0.165743
 C     1.115385     5.121339     1.011452
 H     0.083944     5.022560     1.389263
 H     1.793508     4.873322     1.839871
 H     1.268459     6.176749     0.741279
 C     1.006010     3.706203    -2.520227
 H     0.631257     3.995238    -3.505006
 C     0.859556     4.569455    -1.437868
 H     0.368683     5.536355    -1.577367
 C     2.055376    -0.330396     1.772218
 C     3.309112     0.249044     1.947496
 H     4.011374     0.288578     1.116351
 C     1.157954    -0.421828     2.838993
 H     0.194666    -0.906478     2.681596
 C     3.676336     0.775387     3.192171
 C     5.031073     1.401754     3.354822
 H     5.822695     0.718904     3.009353
 H     5.116309     2.322126     2.754506
 H     5.233475     1.662824     4.402811
 C     1.524841     0.097311     4.075566
 H     0.828472     0.026032     4.914779
 C     2.770073     0.700661     4.253264
 H     3.047262     1.105216     5.229943
