  84
scf done:    -3744.520233
 C    -1.335088    -4.085188    -0.990726
 H    -0.856074    -5.070922    -0.898457
 H    -2.166582    -4.077551    -0.269759
 C    -1.823451    -3.876229    -2.417688
 H    -2.519792    -4.676658    -2.731890
 H    -2.350505    -2.916232    -2.551457
 H    -0.992554    -3.880910    -3.142014
Rh     0.009745    -2.498814    -0.585711
 O    -2.581110    -0.464532    -1.289795
 O    -2.996317    -1.968762     0.729249
 O    -1.401339     0.014075     0.933392
 O     2.046005    -0.432637     1.082161
 O     2.906576    -1.166003    -1.202651
 O     1.097111     0.651178    -1.030754
 P     1.495466    -0.830091    -0.420546
 P    -1.771183    -1.232953    -0.074675
 C     1.299766    -3.824015    -0.264296
 O     2.059868    -4.617573     0.058623
 C    -2.979615     0.850315    -1.316907
 C    -4.324883     1.175095    -1.154560
 H    -5.059923     0.384593    -1.000042
 C    -2.026379     1.845376    -1.527836
 H    -0.982609     1.559561    -1.660749
 C    -4.714066     2.511777    -1.177174
 H    -5.762080     2.784258    -1.044498
 C    -2.411712     3.181956    -1.540362
 H    -1.670673     3.969847    -1.683476
 C    -3.755697     3.509064    -1.357385
Cl    -4.240443     5.173003    -1.356108
 C    -4.349048    -1.777343     0.561274
 C    -4.982944    -2.319282    -0.556201
 H    -4.394004    -2.871033    -1.290512
 C    -5.070501    -1.077998     1.526687
 H    -4.554787    -0.672759     2.397457
 C    -6.353693    -2.132802    -0.719645
 H    -6.851226    -2.549710    -1.598245
 C    -6.442050    -0.902204     1.353015
 H    -7.008952    -0.349946     2.106013
 C    -7.086648    -1.419599     0.229703
 H    -8.160832    -1.273805     0.096920
 C    -2.072101     0.434185     2.057903
 C    -2.000470    -0.326823     3.223748
 H    -1.439220    -1.262588     3.216856
 C    -2.764071     1.643211     2.026950
 H    -2.795685     2.222884     1.103944
 C    -2.660141     0.119007     4.366598
 H    -2.614982    -0.477915     5.280325
 C    -3.414565     2.080239     3.179430
 H    -3.963474     3.024467     3.157438
 C    -3.372172     1.319247     4.347340
 H    -3.888456     1.664100     5.245817
 C     3.352625    -0.263664     1.466904
 C     3.837339     1.016399     1.729863
 H     3.179889     1.877686     1.609364
 C     4.176984    -1.378800     1.620387
 H     3.781264    -2.374714     1.413919
 C     5.159462     1.184248     2.131492
 H     5.552869     2.181272     2.334782
 C     5.500401    -1.212503     2.016139
 H     6.158400    -2.075126     2.130552
 C     5.987994     0.070847     2.264837
Cl     7.638663     0.282312     2.746776
 C     3.638558    -0.358591    -2.037179
 C     4.859474     0.154173    -1.602726
 H     5.211253    -0.074895    -0.596675
 C     3.167973    -0.094758    -3.323592
 H     2.213130    -0.517793    -3.640617
 C     5.602558     0.960127    -2.462562
 H     6.557349     1.366800    -2.121420
 C     3.918322     0.715963    -4.172341
 H     3.548087     0.930191    -5.177576
 C     5.134019     1.250468    -3.743839
 H     5.719098     1.886470    -4.411602
 C     1.450320     1.895136    -0.547994
 C     2.395240     2.657736    -1.231152
 H     2.877854     2.253014    -2.120595
 C     0.804900     2.395731     0.582618
 H     0.066804     1.775140     1.087277
 C     2.710628     3.929864    -0.756431
 H     3.456316     4.526579    -1.286742
 C     1.128499     3.669198     1.044962
 H     0.625349     4.058698     1.932969
 C     2.085392     4.438348     0.381831
 H     2.338907     5.435497     0.748339
