 110
scf done:    -2917.646933
 C    -0.341617     2.526796    -2.750214
 H    -0.490912     2.378576    -3.832351
 H    -1.361708     2.666280    -2.354256
 C     0.479840     3.786689    -2.509662
 H     1.471278     3.723014    -2.985192
 H    -0.013222     4.694712    -2.905712
 H     0.662018     3.970266    -1.436744
Rh     0.654881     0.842699    -1.898881
 O    -0.912376    -0.504300     0.650961
 C    -1.049244     2.273143     0.874152
 C    -2.791136     0.853019    -0.887411
 O     1.850826    -2.282694    -0.838086
 C     3.781477    -0.585412    -1.422501
 C     2.244367    -0.366247     1.005300
 P     2.039561    -0.611384    -0.807808
 P    -1.039481     0.842123    -0.331103
 C     1.628069     0.790828    -3.480966
 O     2.150572     0.716819    -4.501021
 C    -1.702912    -0.914566     1.681890
 C    -1.229346    -0.803786     2.988152
 H    -0.250442    -0.354727     3.168959
 C    -2.940231    -1.510282     1.440036
 H    -3.264202    -1.650978     0.408670
 C    -2.012527    -1.256588     4.049149
 H    -1.633757    -1.160799     5.070262
 C    -3.715452    -1.944532     2.508469
 H    -4.687751    -2.403348     2.306503
 C    -3.272855    -1.822330     3.833499
 C    -4.124722    -2.299628     4.973798
 H    -4.333059    -3.378537     4.893609
 H    -5.098153    -1.784117     4.989124
 H    -3.636513    -2.123800     5.942419
 H    -0.424527     1.921361     1.710493
 H    -0.466100     3.059184     0.375934
 C    -2.377625     2.789519     1.353306
 C    -3.068809     2.113502     2.367309
 H    -2.610496     1.241117     2.834966
 C    -2.967975     3.932115     0.770393
 C    -2.266145     4.738971    -0.283123
 H    -2.058183     4.154460    -1.192569
 H    -1.294593     5.116699     0.073554
 H    -2.871332     5.606689    -0.577966
 C    -4.331788     2.520618     2.785732
 H    -4.844711     1.967079     3.575635
 C    -4.239267     4.327081     1.204106
 H    -4.695775     5.211005     0.750279
 C    -4.927419     3.630715     2.193430
 H    -5.920115     3.962708     2.506552
 H    -3.404667     0.821268     0.022958
 H    -2.937078     1.872436    -1.286548
 C    -3.239163    -0.171657    -1.893231
 C    -2.412190    -0.544749    -2.957210
 H    -1.407994    -0.106159    -3.023464
 C    -4.539660    -0.715092    -1.804079
 C    -5.516539    -0.263728    -0.753904
 H    -5.730834     0.813461    -0.844518
 H    -5.145032    -0.420691     0.270962
 H    -6.469060    -0.802558    -0.850579
 C    -2.833251    -1.466531    -3.911052
 H    -2.166558    -1.741235    -4.732018
 C    -4.937201    -1.658100    -2.759858
 H    -5.940642    -2.087197    -2.689379
 C    -4.098272    -2.038790    -3.804544
 H    -4.439431    -2.771712    -4.539662
 C     0.647699    -2.889032    -0.587469
 C    -0.370443    -2.868852    -1.536137
 H    -0.215507    -2.329608    -2.471524
 C     0.461668    -3.554389     0.623772
 H     1.269043    -3.555024     1.358973
 C    -1.577139    -3.506644    -1.263043
 H    -2.380053    -3.458953    -2.003440
 C    -0.746181    -4.196242     0.879240
 H    -0.890281    -4.701929     1.838083
 C    -1.787231    -4.182780    -0.056334
 C    -3.091411    -4.870265     0.226478
 H    -3.907664    -4.435095    -0.369101
 H    -3.362512    -4.790072     1.289955
 H    -3.041709    -5.944234    -0.019948
 H     3.740593    -1.172666    -2.355193
 H     3.963600     0.456103    -1.717190
 C     4.844406    -1.097700    -0.492942
 C     4.851128    -2.451910    -0.129687
 H     4.083170    -3.107404    -0.544804
 C     5.831116    -0.236908     0.034252
 C     5.905909     1.215373    -0.340909
 H     6.032868     1.346958    -1.427600
 H     6.758315     1.700066     0.153686
 H     4.997834     1.763028    -0.046862
 C     5.797949    -2.959874     0.754933
 H     5.780157    -4.018799     1.023588
 C     6.777187    -0.768829     0.919504
 H     7.542905    -0.103900     1.328346
 C     6.766563    -2.111581     1.286622
 H     7.518275    -2.494422     1.981115
 H     1.243796    -0.546630     1.429450
 H     2.893359    -1.183458     1.347045
 C     2.793181     0.970944     1.423785
 C     2.485572     2.138198     0.713282
 H     1.854671     2.063608    -0.185858
 C     3.636861     1.059975     2.552432
 C     4.007940    -0.159450     3.344681
 H     4.580382    -0.874841     2.731789
 H     3.117882    -0.689710     3.719506
 H     4.629561     0.108887     4.209813
 C     2.989884     3.379442     1.094644
 H     2.737039     4.269481     0.513356
 C     4.138190     2.313297     2.919363
 H     4.795454     2.380919     3.790699
 C     3.823205     3.467937     2.205546
 H     4.232606     4.431925     2.516824
