 102
scf done:    -3061.306692
 C     2.476814     1.678809     3.074655
 H     2.241132     1.807915     4.141744
 H     3.346348     1.007588     3.036939
 C     2.811995     3.029065     2.458189
 H     3.596537     3.553294     3.034846
 H     3.196657     2.925408     1.431654
 H     1.939468     3.701629     2.420094
Rh     0.843812     0.828177     1.997446
 O     2.231889     0.015486    -1.073794
 O     3.928846     0.442642     0.767672
 O     2.663871    -1.668884     0.689532
 O    -1.374969    -1.319991     0.553901
 O    -2.393259     0.688699     1.765358
 O    -1.270396     0.965109    -0.536431
 P    -1.043262     0.251404     0.919592
 P     2.391502    -0.060594     0.569214
 C    -0.067408     1.225909     3.576278
 O    -0.588097     1.421518     4.576417
 C     1.557280     1.005321    -1.744403
 C     1.452377     2.307293    -1.259334
 H     1.930317     2.589859    -0.319051
 C     0.973617     0.663699    -2.961865
 H     1.094790    -0.352573    -3.340191
 C     0.709383     3.243736    -1.974736
 H     0.616670     4.258178    -1.578257
 C     0.236558     1.611644    -3.661172
 H    -0.237758     1.327353    -4.604294
 C     0.071142     2.913773    -3.173118
 C    -0.808256     3.899407    -3.882505
 H    -0.514676     4.935929    -3.662644
 H    -1.855537     3.776383    -3.558569
 H    -0.780405     3.757901    -4.972888
 C     5.025860    -0.031186     0.071148
 C     5.561167    -1.276947     0.391258
 H     5.080944    -1.874180     1.165676
 C     5.607427     0.797183    -0.898467
 C     5.036792     2.146026    -1.209170
 H     4.101521     2.065093    -1.784603
 H     4.801240     2.700414    -0.288657
 H     5.743781     2.741435    -1.802424
 C     6.690972    -1.733210    -0.282479
 H     7.109636    -2.711184    -0.034682
 C     6.745465     0.313786    -1.552959
 H     7.219396     0.944975    -2.309581
 C     7.282903    -0.937628    -1.260667
 H     8.171641    -1.286402    -1.791359
 C     1.938512    -2.682235     0.101241
 C     2.210935    -3.033593    -1.218773
 H     2.964609    -2.467155    -1.767257
 C     1.005171    -3.374818     0.882599
 C     0.796059    -3.006205     2.317020
 H    -0.067068    -3.538816     2.737540
 H     1.684638    -3.258468     2.918193
 H     0.635547    -1.921092     2.435384
 C     1.519230    -4.094103    -1.799107
 H     1.725781    -4.375849    -2.834132
 C     0.317751    -4.425969     0.267485
 H    -0.429971    -4.972560     0.847860
 C     0.564052    -4.784656    -1.056189
 H     0.004998    -5.606453    -1.508632
 C    -1.936922    -1.802238    -0.608727
 C    -1.154701    -1.889545    -1.755740
 H    -0.113152    -1.575004    -1.712281
 C    -3.262328    -2.225591    -0.625424
 H    -3.865935    -2.159671     0.279899
 C    -1.711217    -2.379047    -2.931756
 H    -1.088942    -2.439387    -3.829121
 C    -3.804076    -2.716460    -1.811376
 H    -4.849200    -3.037526    -1.820718
 C    -3.046815    -2.797730    -2.985719
 C    -3.633354    -3.350975    -4.252172
 H    -3.430682    -4.431368    -4.343545
 H    -3.205958    -2.864506    -5.141312
 H    -4.724660    -3.220182    -4.282311
 C    -3.622088     0.064195     1.797871
 C    -4.656916     0.540003     0.997154
 H    -4.475758     1.388550     0.337866
 C    -3.808902    -1.005137     2.688269
 C    -2.697835    -1.468447     3.577445
 H    -1.847244    -1.841811     2.987958
 H    -2.322474    -0.645192     4.203591
 H    -3.037524    -2.277154     4.238201
 C    -5.902836    -0.080545     1.040400
 H    -6.709977     0.288324     0.403838
 C    -5.070367    -1.609645     2.707713
 H    -5.236571    -2.449323     3.387828
 C    -6.108371    -1.165244     1.889659
 H    -7.080993    -1.661017     1.926426
 C    -2.301006     1.714395    -1.038521
 C    -3.048817     1.181672    -2.087022
 H    -2.812161     0.178135    -2.442710
 C    -2.538631     3.002652    -0.535783
 C    -1.731201     3.565854     0.593050
 H    -2.147396     3.255886     1.564727
 H    -0.692380     3.205757     0.564920
 H    -1.724570     4.664180     0.560753
 C    -4.082047     1.928856    -2.643428
 H    -4.673932     1.508645    -3.459624
 C    -3.587215     3.727951    -1.115800
 H    -3.796824     4.732671    -0.738803
 C    -4.358761     3.204514    -2.151292
 H    -5.170475     3.797088    -2.579053
