  98
scf done:    -2760.510419
 C    -2.596048     1.373989    -2.122483
 H    -3.040711     0.813635    -2.961220
 H    -3.382828     1.412813    -1.350529
 C    -2.232485     2.787148    -2.555247
 H    -3.125263     3.365320    -2.860090
 H    -1.752337     3.358302    -1.744279
 H    -1.538646     2.788888    -3.411857
Rh    -0.818612     0.453394    -1.407784
 O    -2.718917     1.304677     1.245904
 C    -3.563704    -0.987915     0.136771
 C    -1.332718    -0.902770     1.866052
 O     1.412263    -0.433277     0.949835
 C     1.965155    -1.653331    -1.458814
 C     2.523276     1.139727    -0.965381
 P     1.263806    -0.150580    -0.698505
 P    -2.057514    -0.020800     0.448868
 C    -0.402087     0.137564    -3.197039
 O    -0.230704    -0.199699    -4.282599
 C    -2.220335     2.560796     1.046513
 C    -0.847808     2.800985     0.975332
 H    -0.146981     1.970231     1.080553
 C    -3.151691     3.603888     0.925907
 C    -4.616611     3.301285     0.979556
 H    -5.214343     4.215054     0.860386
 H    -4.897886     2.592779     0.184121
 H    -4.891203     2.823573     1.932803
 C    -0.380764     4.099290     0.773143
 H     0.695234     4.279085     0.712949
 C    -2.655481     4.895237     0.733853
 H    -3.367225     5.719018     0.631595
 C    -1.285746     5.149892     0.652049
 H    -0.929272     6.170011     0.493442
 C    -4.547341    -1.121142     1.125531
 H    -4.418438    -0.622292     2.089206
 C    -3.731326    -1.630759    -1.089857
 H    -2.962455    -1.507516    -1.858738
 C    -5.682031    -1.881631     0.877651
 H    -6.448030    -1.975326     1.652867
 C    -4.866773    -2.405373    -1.323098
 H    -4.986375    -2.908364    -2.286522
 C    -5.860659    -2.539435    -0.349653
 C    -7.097185    -3.350204    -0.604204
 H    -7.024253    -3.914636    -1.544138
 H    -7.280960    -4.066026     0.211942
 H    -7.986161    -2.701904    -0.670504
 C    -0.911885    -0.219802     3.008840
 H    -1.171205     0.833393     3.137148
 C    -1.032238    -2.262384     1.740343
 H    -1.394713    -2.820031     0.871357
 C    -0.145670    -0.870793     3.971214
 H     0.195885    -0.317534     4.850576
 C    -0.265660    -2.905293     2.705660
 H    -0.023613    -3.965064     2.585261
 C     0.219348    -2.212950     3.822427
 C     1.146509    -2.870828     4.798850
 H     1.019933    -2.468990     5.814621
 H     0.995420    -3.959410     4.834885
 H     2.193317    -2.690105     4.499563
 C     2.548860    -0.683389     1.664154
 C     3.148196    -1.943204     1.625787
 H     2.716034    -2.716702     0.992200
 C     3.057042     0.336638     2.487972
 C     2.392188     1.676262     2.542569
 H     2.898792     2.337355     3.258444
 H     2.400683     2.167663     1.557232
 H     1.338926     1.578503     2.844150
 C     4.281475    -2.199441     2.394687
 H     4.747422    -3.186955     2.356672
 C     4.190036     0.048228     3.254377
 H     4.595884     0.831488     3.900602
 C     4.807916    -1.200668     3.210775
 H     5.694756    -1.393449     3.818633
 C     1.332957    -2.873699    -1.174738
 H     0.507697    -2.895242    -0.458941
 C     2.992779    -1.636471    -2.403488
 H     3.481878    -0.696150    -2.665306
 C     1.749855    -4.045892    -1.788343
 H     1.250568    -4.988157    -1.544981
 C     3.397088    -2.817438    -3.026912
 H     4.203866    -2.783662    -3.764117
 C     2.792452    -4.040104    -2.728392
 C     3.218263    -5.310134    -3.403363
 H     4.115914    -5.159522    -4.018833
 H     3.436398    -6.100140    -2.668000
 H     2.420767    -5.692801    -4.060842
 C     3.880488     0.969796    -0.651109
 H     4.253517    -0.001833    -0.320657
 C     2.080287     2.399968    -1.384524
 H     1.020991     2.537012    -1.625795
 C     4.759237     2.043440    -0.741958
 H     5.810932     1.897520    -0.480365
 C     2.968875     3.467375    -1.478837
 H     2.601914     4.444405    -1.805012
 C     4.321256     3.309514    -1.154920
 C     5.284968     4.452673    -1.274104
 H     4.769920     5.422352    -1.223784
 H     6.045531     4.422758    -0.480131
 H     5.819195     4.413154    -2.238135
