  82
scf done:    -2151.244664
 C     2.757358    -0.619050    -2.223882
 H     2.933928     0.101719    -3.038264
 H     3.468262    -0.355616    -1.420962
 C     3.051915    -2.033621    -2.700099
 H     2.472128    -2.295468    -3.599292
 H     4.121329    -2.168457    -2.949075
 H     2.808743    -2.789161    -1.933817
Rh     0.829113    -0.517332    -1.390693
 O     2.124418     1.321507     1.368697
 C     2.799591     2.359121    -0.944698
 C    -0.028637     2.472200     0.126741
 O    -2.115971    -0.396708     0.704672
 C    -2.163274    -2.395776    -1.211197
 C    -0.353681    -2.266850     1.203013
 P    -1.017488    -1.291867    -0.223975
 P     1.431595     1.364505    -0.180637
 C     0.164721    -0.965199    -3.051105
 O    -0.312012    -1.017552    -4.100892
 C     1.779251     0.433877     2.340474
 C     0.668777     0.671403     3.152748
 H     0.061336     1.558504     2.970383
 C     2.606938    -0.681357     2.555409
 C     3.801154    -0.901380     1.680821
 H     4.367789    -1.787242     1.997429
 H     3.503390    -1.041322     0.629641
 H     4.471394    -0.028229     1.702621
 C     0.353719    -0.211697     4.183040
 H    -0.521116    -0.024180     4.809792
 C     2.274590    -1.547145     3.601089
 H     2.911343    -2.417311     3.783536
 C     1.157465    -1.327520     4.406827
 H     0.920811    -2.024542     5.213720
 H     3.572916     1.579784    -1.050763
 C     2.436699     2.838631    -2.347529
 H     3.352902     3.057202    -2.917624
 H     1.861750     2.084884    -2.905537
 H     1.844938     3.764881    -2.311938
 C     3.390078     3.472455    -0.087985
 H     3.608883     3.128936     0.931519
 H     4.331416     3.820699    -0.543214
 H     2.719814     4.340818    -0.023133
 H    -0.701891     1.767712     0.645260
 C     0.211896     3.667083     1.040738
 H    -0.753907     4.039116     1.419065
 H     0.847463     3.417544     1.901656
 H     0.689874     4.496678     0.500218
 C    -0.712796     2.879814    -1.173492
 H    -0.801159     2.030557    -1.866491
 H    -1.726735     3.249592    -0.961606
 H    -0.159570     3.683556    -1.679360
 C    -2.950820     0.571000     0.248530
 C    -3.217524     0.788020    -1.104022
 H    -2.715992     0.187695    -1.863793
 C    -3.565401     1.362659     1.238387
 C    -3.274444     1.096832     2.682585
 H    -3.610706     0.088874     2.974222
 H    -2.192842     1.124757     2.882405
 H    -3.773922     1.830570     3.329605
 C    -4.106086     1.791814    -1.487159
 H    -4.305257     1.952878    -2.549027
 C    -4.441617     2.366326     0.824810
 H    -4.921860     2.986826     1.586577
 C    -4.719558     2.587096    -0.525409
 H    -5.413662     3.376815    -0.820195
 H    -2.325115    -1.807819    -2.130776
 C    -1.449748    -3.676992    -1.633831
 H    -2.022822    -4.174338    -2.431655
 H    -0.439769    -3.478761    -2.024601
 H    -1.364519    -4.386429    -0.797620
 C    -3.525965    -2.672822    -0.588402
 H    -4.061885    -1.749381    -0.330608
 H    -4.148174    -3.227191    -1.309439
 H    -3.448677    -3.285265     0.319507
 H     0.006863    -1.441350     1.837132
 C    -1.359040    -3.064209     2.019092
 H    -0.882855    -3.392500     2.956868
 H    -2.236295    -2.456997     2.282636
 H    -1.701358    -3.966314     1.489914
 C     0.864386    -3.086860     0.789597
 H     1.577403    -2.478721     0.207574
 H     1.387484    -3.448405     1.687502
 H     0.595081    -3.960329     0.180017
