  86
scf done:    -2452.073512
 C    -0.637356    -2.856432    -2.182861
 H    -1.300100    -2.920027    -3.059744
 H     0.369063    -2.664940    -2.589005
 C    -0.644369    -4.168956    -1.411427
 H    -0.342288    -5.022705    -2.047399
 H     0.054408    -4.143179    -0.559757
 H    -1.642982    -4.406991    -1.010198
Rh    -1.288993    -1.369586    -0.805652
 O     1.242136     0.380157     0.364661
 O     1.876720    -2.065607    -0.027595
 O     1.701677    -0.543182    -1.988614
 O    -1.406277     1.400488     1.245876
 O    -3.612070     0.166600     0.923584
 O    -1.835381    -0.710634     2.412181
 P    -2.019754    -0.113900     0.908105
 P     0.908139    -0.916848    -0.614466
 C    -2.954473    -1.422173    -1.668054
 O    -3.924132    -1.361671    -2.274892
 C     2.461122     0.775072     0.840156
 C     2.607376     0.900714     2.221857
 H     1.756526     0.670451     2.865140
 C     3.531539     1.080781    -0.001172
 H     3.406553     0.990761    -1.079714
 C     3.824863     1.312093     2.756269
 H     3.927425     1.401111     3.841362
 C     4.744880     1.482643     0.551307
 H     5.580593     1.709820    -0.116632
 C     4.919433     1.606344     1.934627
 C     6.223389     2.073210     2.513785
 H     6.371963     1.689995     3.533666
 H     6.261418     3.174186     2.569334
 H     7.076469     1.749036     1.900014
 C     3.242425    -2.357581    -0.389029
 H     3.634402    -1.514174    -0.976460
 C     3.247254    -3.604751    -1.246250
 H     2.649716    -3.448374    -2.155533
 H     2.820392    -4.455212    -0.693316
 H     4.274638    -3.861501    -1.545253
 C     4.030728    -2.493654     0.894801
 H     3.999754    -1.557849     1.471047
 H     3.615529    -3.303221     1.514517
 H     5.082132    -2.729747     0.672837
 C     1.016801     0.125447    -3.067319
 H    -0.058413    -0.119320    -2.972383
 C     1.560326    -0.445737    -4.356910
 H     1.385913    -1.529770    -4.406261
 H     2.643109    -0.260629    -4.435416
 H     1.065372     0.024151    -5.219551
 C     1.202007     1.621850    -2.935244
 H     0.836895     1.979660    -1.962793
 H     2.263437     1.898357    -3.038309
 H     0.633517     2.145048    -3.718265
 C    -1.175121     2.345068     0.290627
 C    -0.123497     3.237354     0.507258
 H     0.486072     3.120840     1.404688
 C    -1.959676     2.466751    -0.858193
 H    -2.792037     1.781696    -1.027708
 C     0.133212     4.243548    -0.416186
 H     0.961826     4.933408    -0.232768
 C    -1.683322     3.479518    -1.776224
 H    -2.306214     3.563905    -2.671130
 C    -0.636840     4.384082    -1.579166
 C    -0.317498     5.442772    -2.594380
 H     0.515655     5.128600    -3.246127
 H    -0.014895     6.385810    -2.114998
 H    -1.179897     5.652679    -3.243254
 C    -4.270548     0.857605     2.003890
 H    -3.497626     1.298789     2.654542
 C    -5.075935    -0.153358     2.792057
 H    -4.411867    -0.929466     3.196244
 H    -5.826420    -0.632995     2.145232
 H    -5.597068     0.335973     3.628845
 C    -5.104023     1.963394     1.393542
 H    -4.467011     2.673476     0.846829
 H    -5.840837     1.543472     0.691668
 H    -5.643873     2.515165     2.177577
 C    -0.617723    -1.375049     2.784608
 H     0.208084    -0.955650     2.186659
 C    -0.736968    -2.854163     2.485675
 H    -0.943473    -3.007878     1.413674
 H    -1.557371    -3.302295     3.066948
 H     0.200877    -3.375248     2.728492
 C    -0.372160    -1.056235     4.242438
 H    -0.315092     0.032262     4.389319
 H    -1.192112    -1.444559     4.865896
 H     0.570302    -1.510495     4.582703
