  80
scf done:    -3292.440386
 C     1.069084    -2.117637     2.990027
 H     1.825651    -1.985172     3.773544
 H     0.076044    -1.958915     3.428939
 C     1.186186    -3.433626     2.245882
 H     1.849903    -4.159823     2.741263
 H     0.207719    -3.897602     2.060677
 H     1.650809    -3.296550     1.223279
Rh     1.536082    -1.107641     1.218052
 O    -1.151680    -0.347712    -0.550325
 O    -1.702384    -1.931678     1.378895
 O    -1.321029     0.464078     1.870732
 O     1.507569     0.579786    -1.774816
 O     3.779832    -0.290814    -1.024412
 O     2.092741    -1.802651    -2.007176
 P     2.211516    -0.645462    -0.875599
 P    -0.658760    -0.748679     0.999354
 C     2.969624    -0.213061     2.030316
 O     3.736620     0.483675     2.527961
 C    -2.451259    -0.198483    -0.938571
 C    -3.065863    -1.227168    -1.654372
 H    -2.502840    -2.139549    -1.854484
 C    -3.153082     0.978002    -0.668199
 H    -2.661452     1.772251    -0.109162
 C    -4.377116    -1.086167    -2.098482
 H    -4.865237    -1.884811    -2.659310
 C    -4.466271     1.121455    -1.105456
 H    -5.023838     2.036047    -0.897433
 C    -5.074244     0.088129    -1.817860
Cl    -6.709162     0.266818    -2.363278
 C    -3.000931    -1.795105     1.991723
 H    -3.430662    -0.827627     1.687059
 C    -2.851045    -1.826748     3.498431
 H    -2.223227    -0.993781     3.841145
 H    -2.389316    -2.773654     3.818124
 H    -3.835466    -1.740163     3.982427
 C    -3.856214    -2.923377     1.459260
 H    -3.946941    -2.859773     0.366637
 H    -3.412032    -3.896063     1.720497
 H    -4.865708    -2.873201     1.893341
 C    -0.544163     1.573690     2.365017
 H     0.358493     1.665085     1.737543
 C    -0.125830     1.297470     3.793162
 H     0.478030     0.381720     3.843674
 H    -1.008791     1.183400     4.441432
 H     0.480061     2.131323     4.178137
 C    -1.392406     2.818945     2.232512
 H    -1.647503     3.018119     1.183561
 H    -2.322705     2.715072     2.812114
 H    -0.843509     3.696095     2.603945
 C     1.206078     1.799578    -1.257445
 C     0.038888     2.422379    -1.705316
 H    -0.590675     1.901882    -2.428168
 C     2.024999     2.442807    -0.324564
 H     2.944836     1.966231     0.017347
 C    -0.312623     3.677886    -1.224361
 H    -1.224563     4.168707    -1.568769
 C     1.666153     3.694823     0.170162
 H     2.294703     4.196592     0.907487
 C     0.498518     4.305781    -0.278342
Cl     0.030939     5.847490     0.364483
 C     4.414820    -0.076255    -2.302718
 H     3.627263     0.013078    -3.068992
 C     5.282780    -1.277999    -2.608870
 H     4.667746    -2.187260    -2.647942
 H     6.050352    -1.403966    -1.830125
 H     5.786717    -1.151749    -3.578991
 C     5.182588     1.224679    -2.215345
 H     4.504590     2.067101    -2.016971
 H     5.926315     1.176357    -1.405332
 H     5.709137     1.422644    -3.160822
 C     0.901719    -2.585727    -2.179897
 H     0.278229    -2.468848    -1.275184
 C     1.328539    -4.031511    -2.304072
 H     1.871324    -4.351346    -1.402851
 H     1.990942    -4.164220    -3.173342
 H     0.451340    -4.682980    -2.431756
 C     0.146589    -2.061311    -3.382922
 H    -0.150027    -1.016374    -3.220335
 H     0.780891    -2.111572    -4.281136
 H    -0.758295    -2.660123    -3.565256
