 110
scf done:    -2917.639107
 C    -2.549215     3.237683     1.852372
 H    -2.418861     4.331226     1.883426
 H    -3.323467     3.071311     1.086567
 C    -3.010139     2.746664     3.218356
 H    -2.282603     3.000651     4.005480
 H    -3.980173     3.186588     3.519545
 H    -3.130520     1.649763     3.258235
Rh    -0.753068     2.223469     1.314491
 O    -1.584863    -0.950979     0.743112
 C    -3.883394     0.573475     0.463618
 C    -1.855730     0.626589    -1.579672
 O     1.047223    -0.010856    -0.364504
 C     2.668810     2.091061     0.566567
 C     1.670325    -0.066685     2.326925
 P     1.161076     1.057702     0.928480
 P    -2.039625     0.577448     0.260069
 C     0.074601     3.769439     1.890817
 O     0.575410     4.760084     2.194445
 C    -1.652184    -2.165160     0.112083
 C    -1.011585    -2.413506    -1.101599
 H    -0.457054    -1.621467    -1.598670
 C    -2.262036    -3.218730     0.793223
 H    -2.719857    -3.021402     1.762306
 C    -1.038846    -3.694474    -1.647459
 H    -0.527538    -3.871185    -2.597814
 C    -2.273971    -4.493306     0.239100
 H    -2.764231    -5.304626     0.784758
 C    -1.677065    -4.756527    -0.999958
 C    -1.734835    -6.125257    -1.613454
 H    -0.917789    -6.279613    -2.333007
 H    -2.683026    -6.276724    -2.156602
 H    -1.670028    -6.914326    -0.849437
 H    -4.077525     0.956424     1.474385
 H    -4.245211     1.339149    -0.241965
 C    -4.568263    -0.742659     0.262521
 C    -4.806104    -1.270156    -1.012139
 H    -4.532154    -0.695967    -1.898858
 C    -4.974180    -1.486032     1.375608
 H    -4.801692    -1.074139     2.374892
 C    -5.404285    -2.518199    -1.156253
 H    -5.580722    -2.922151    -2.155934
 C    -5.579657    -2.739383     1.250358
 C    -5.949800    -3.536127     2.467220
 H    -5.109134    -4.176840     2.785284
 H    -6.202309    -2.885359     3.316796
 H    -6.806593    -4.197534     2.273527
 C    -5.784841    -3.250800    -0.035107
 H    -6.253706    -4.230880    -0.158021
 H    -0.780637     0.504935    -1.769434
 H    -2.383018    -0.223728    -2.033100
 C    -2.357142     1.939536    -2.111706
 C    -3.498406     2.010003    -2.918996
 H    -4.013620     1.092943    -3.216938
 C    -1.708381     3.127491    -1.760838
 H    -0.836418     3.074889    -1.095181
 C    -3.975849     3.245556    -3.349911
 H    -4.866755     3.293189    -3.980790
 C    -2.183017     4.376973    -2.170932
 C    -1.471551     5.624458    -1.735720
 H    -0.480972     5.704606    -2.212168
 H    -2.041345     6.528227    -1.992615
 H    -1.305669     5.617419    -0.647130
 C    -3.328343     4.420758    -2.972736
 H    -3.719375     5.387382    -3.301912
 C     1.875171    -0.216102    -1.424006
 C     2.569001    -1.423502    -1.528755
 H     2.463187    -2.167063    -0.739243
 C     1.962127     0.727037    -2.449746
 H     1.378497     1.648922    -2.388662
 C     3.385513    -1.650417    -2.630207
 H     3.927974    -2.598055    -2.698013
 C     2.794322     0.486182    -3.543019
 H     2.864930     1.237579    -4.334022
 C     3.531463    -0.697272    -3.649083
 C     4.458486    -0.941711    -4.804059
 H     5.511930    -0.832926    -4.495853
 H     4.279646    -0.231019    -5.623071
 H     4.343055    -1.960069    -5.205169
 H     2.532689     2.453220    -0.463961
 H     2.511254     2.966577     1.214345
 C     4.049017     1.546206     0.781493
 C     4.670550     1.700003     2.028799
 H     4.154045     2.237156     2.829313
 C     4.751377     0.894838    -0.236699
 H     4.292528     0.790040    -1.221188
 C     5.943460     1.182171     2.251663
 H     6.416284     1.303804     3.229115
 C     6.029619     0.366783    -0.029788
 C     6.748572    -0.320629    -1.153847
 H     6.065389    -0.978606    -1.711772
 H     7.149400     0.413483    -1.872339
 H     7.592474    -0.922257    -0.787737
 C     6.615826     0.509909     1.232415
 H     7.612415     0.098840     1.415111
 H     2.407598     0.496643     2.919400
 H     0.759254    -0.156924     2.935600
 C     2.180741    -1.424962     1.948227
 C     1.265098    -2.459228     1.726392
 H     0.200675    -2.267346     1.859919
 C     3.544362    -1.688122     1.786933
 H     4.270335    -0.894163     1.968685
 C     1.704558    -3.717673     1.327882
 H     0.973099    -4.508650     1.143909
 C     4.004663    -2.948032     1.388512
 C     5.471091    -3.186590     1.171905
 H     6.082346    -2.540299     1.817677
 H     5.745034    -4.234108     1.365145
 H     5.753184    -2.958128     0.130277
 C     3.066759    -3.961134     1.156090
 H     3.408722    -4.951402     0.841829
