  98
scf done:    -2760.482492
 C    -1.780977     0.493033    -2.704858
 H    -1.558237     0.205968    -3.738753
 H    -2.772185     0.110156    -2.431575
 C    -1.573857     1.953933    -2.402423
 H    -1.029163     2.494337    -3.188149
 H    -2.502977     2.490072    -2.153010
 H    -0.966954     2.095785    -1.446938
Rh    -0.248418     0.141919    -1.343264
 O    -3.332940    -0.118238     0.122250
 C    -2.514439    -2.359682    -0.983657
 C    -1.628010    -1.639112     1.625096
 O     2.308185     0.069701     1.158336
 C     3.047004     1.418911    -1.066652
 C     1.183637     2.467586     0.773703
 P     1.560851     0.891250    -0.102519
 P    -1.856814    -0.914444    -0.051432
 C     0.653140    -0.849314    -2.615735
 O     1.116303    -1.629141    -3.330518
 C    -3.439850     1.228696     0.271785
 C    -4.522456     1.863238    -0.341659
 H    -5.232902     1.260986    -0.911414
 C    -2.521954     1.981430     1.003547
 H    -1.683722     1.488971     1.496760
 C    -4.666358     3.242986    -0.239986
 H    -5.513425     3.727843    -0.733599
 C    -2.671263     3.363872     1.081119
 H    -1.925527     3.940074     1.632629
 C    -3.737555     4.022666     0.461817
 C    -3.894348     5.511939     0.572774
 H    -4.389311     5.933738    -0.314406
 H    -2.919232     6.007659     0.687533
 H    -4.506353     5.785992     1.448773
 C    -3.799939    -2.298724    -1.537867
 H    -4.417418    -1.421350    -1.343909
 C    -1.704969    -3.493158    -1.218488
 C    -0.326056    -3.644423    -0.648807
 H    -0.362132    -3.976347     0.400828
 H     0.229105    -2.695391    -0.665999
 H     0.251972    -4.384643    -1.218854
 C    -4.297480    -3.339012    -2.317662
 H    -5.302847    -3.269060    -2.739602
 C    -2.227882    -4.523151    -2.008862
 H    -1.602949    -5.399933    -2.199703
 C    -3.505881    -4.458188    -2.555756
 H    -3.879405    -5.280798    -3.170336
 C    -0.301411    -1.772445     2.043069
 H     0.488589    -1.413814     1.384024
 C    -2.673518    -2.111190     2.454205
 C    -4.126601    -2.049393     2.086405
 H    -4.305181    -2.453412     1.080075
 H    -4.497369    -1.014639     2.077774
 H    -4.724670    -2.627601     2.804048
 C     0.028693    -2.360012     3.260351
 H     1.077196    -2.465869     3.544835
 C    -2.319476    -2.676874     3.685429
 H    -3.118010    -3.039226     4.338694
 C    -0.993186    -2.805946     4.091286
 H    -0.762563    -3.264383     5.056170
 C     2.906380    -1.146055     1.042884
 C     3.418109    -1.700837     2.221039
 H     3.329589    -1.133026     3.149465
 C     3.031185    -1.845237    -0.157238
 H     2.662140    -1.420365    -1.089835
 C     4.021271    -2.951823     2.195131
 H     4.415295    -3.371081     3.125382
 C     3.633772    -3.102859    -0.160981
 H     3.714873    -3.639111    -1.110256
 C     4.133541    -3.685465     1.005642
 C     4.756415    -5.051334     0.996790
 H     5.692888    -5.071891     1.575049
 H     4.982937    -5.382540    -0.026442
 H     4.082056    -5.799797     1.445165
 C     2.930743     1.443306    -2.460511
 H     1.984483     1.129302    -2.907104
 C     4.251694     1.849443    -0.458236
 C     4.478963     1.900395     1.025198
 H     4.666521     0.896475     1.435390
 H     3.612549     2.310272     1.561428
 H     5.353967     2.525708     1.249954
 C     3.980159     1.861102    -3.274183
 H     3.860174     1.868334    -4.359726
 C     5.294804     2.256502    -1.298555
 H     6.231293     2.586698    -0.840804
 C     5.174099     2.262167    -2.685862
 H     6.014320     2.589242    -3.303315
 C     1.233693     3.612169    -0.036486
 H     1.521105     3.514696    -1.086280
 C     0.805005     2.588960     2.128361
 C     0.666717     1.426883     3.066642
 H     1.648719     1.038040     3.371946
 H     0.135754     0.583715     2.606600
 H     0.115914     1.726988     3.968373
 C     0.947421     4.874561     0.470766
 H     0.996572     5.748248    -0.182644
 C     0.548575     3.876417     2.621379
 H     0.272773     3.981000     3.674268
 C     0.620324     5.009478     1.817033
 H     0.410351     5.994318     2.241150
