  92
scf done:    -3449.548059
 C    -1.495951    -4.066503    -0.679752
 H    -0.951997    -5.005752    -0.868840
 H    -1.999526    -4.200647     0.290082
 C    -2.535835    -3.834133    -1.768533
 H    -3.253626    -4.673331    -1.831425
 H    -3.125995    -2.924600    -1.577621
 H    -2.077994    -3.727776    -2.765254
Rh    -0.135501    -2.421362    -0.585324
 O    -1.706481     0.154053     1.059289
 O    -3.076715    -1.960970     0.861186
 O    -1.182869    -1.629484     2.547702
 O     1.421075    -0.018558     0.964005
 O     2.837978    -0.879270    -0.993055
 O     0.928111     0.588670    -1.491056
 P     1.271478    -0.677049    -0.555770
 P    -1.532764    -1.495857     0.972621
 C     0.838035    -3.407418    -1.839747
 O     1.424261    -4.016641    -2.612410
 C    -2.131764     0.934248     0.023666
 C    -2.193658     0.494704    -1.300170
 H    -1.880580    -0.520760    -1.562681
 C    -2.516323     2.237283     0.346274
 H    -2.473503     2.557291     1.388756
 C    -2.620496     1.365654    -2.297142
 H    -2.659287     1.032975    -3.335400
 C    -2.945196     3.107938    -0.649050
 H    -3.237923     4.130253    -0.405805
 C    -2.989684     2.668201    -1.971193
Cl    -3.490948     3.758644    -3.223568
 C    -4.107190    -1.436233     1.699401
 H    -4.540528    -2.288259     2.247796
 H    -3.675828    -0.746309     2.442891
 C    -5.156875    -0.740999     0.861325
 H    -4.671422     0.054946     0.273090
 H    -5.563928    -1.461185     0.131439
 C    -6.278653    -0.146328     1.700125
 H    -5.847316     0.551018     2.440345
 H    -6.765305    -0.944726     2.288188
 C    -7.318225     0.581265     0.863005
 H    -6.860612     1.405543     0.292959
 H    -7.791119    -0.097742     0.135792
 H    -8.116266     1.008760     1.488352
 C    -0.509869    -2.797721     3.031748
 H    -0.900311    -2.953569     4.049267
 H    -0.787062    -3.674980     2.423463
 C     0.991265    -2.614843     3.042691
 H     1.440752    -3.553692     3.412352
 H     1.327217    -2.500355     1.996904
 C     1.463480    -1.433748     3.876025
 H     1.163338    -1.585916     4.928445
 H     0.935443    -0.530524     3.533208
 C     2.963637    -1.210883     3.792125
 H     3.525625    -2.092229     4.142068
 H     3.267706    -1.011249     2.752913
 H     3.279894    -0.348971     4.398526
 C     1.857783     1.234705     1.284346
 C     0.966037     2.084272     1.938910
 H    -0.043016     1.719625     2.136914
 C     3.162990     1.651046     1.018713
 H     3.855834     0.972435     0.518993
 C     1.369742     3.361417     2.311128
 H     0.680399     4.039189     2.817030
 C     3.567973     2.931910     1.385822
 H     4.583100     3.274271     1.179042
 C     2.668381     3.783196     2.025452
Cl     3.168406     5.381780     2.469733
 C     3.608833    -1.928368    -0.417804
 H     4.090087    -1.549115     0.502244
 H     2.944836    -2.760873    -0.123566
 C     4.644657    -2.391409    -1.415362
 H     5.205945    -3.224643    -0.957797
 H     4.124503    -2.811703    -2.293113
 C     5.602955    -1.292657    -1.853780
 H     6.116707    -0.885150    -0.964178
 H     5.015233    -0.459436    -2.273173
 C     6.629105    -1.766057    -2.869715
 H     7.249507    -2.581722    -2.464616
 H     6.139999    -2.147481    -3.780279
 H     7.305603    -0.952473    -3.171848
 C     1.825988     1.420535    -2.231419
 H     2.720738     1.635495    -1.628390
 H     2.148013     0.868846    -3.128969
 C     1.110433     2.698740    -2.599905
 H     1.790814     3.279513    -3.247951
 H     0.226792     2.454689    -3.214408
 C     0.690747     3.532129    -1.398126
 H     1.571909     3.717563    -0.759017
 H    -0.004707     2.938133    -0.785194
 C     0.043614     4.852338    -1.778870
 H     0.736122     5.490690    -2.351707
 H    -0.853432     4.698001    -2.398796
 H    -0.263268     5.417494    -0.885448
