  88
scf done:    -2305.490974
 C     1.339370    -3.094711     0.374113
 H     1.665960    -3.757030    -0.445451
 H     2.270074    -2.696497     0.809078
 C     0.586878    -3.904509     1.421297
 H    -0.285825    -4.423734     0.994114
 H     1.227990    -4.675372     1.890475
 H     0.204073    -3.273030     2.241720
Rh     0.077308    -1.531342    -0.304590
 C     1.929814     0.471155     2.047023
 C     3.434595    -0.504265    -0.243430
 C     1.628280     1.619644    -0.570092
 C    -1.682227     1.535373    -1.498307
 C    -3.310250    -0.600681    -0.581505
 C    -1.622446     0.754445     1.309356
 P    -1.609210     0.061073    -0.386267
 P     1.746980    -0.003598     0.278030
 C    -0.728212    -2.838364    -1.325480
 O    -1.114448    -3.639272    -2.059078
 H     2.727659     1.224941     2.156872
 H     0.982972     0.965453     2.319174
 C     2.168702    -0.717350     2.967525
 H     3.096704    -1.235579     2.673070
 H     1.356921    -1.447527     2.822454
 C     2.244877    -0.308508     4.429477
 H     3.067916     0.402624     4.606887
 H     1.310591     0.179606     4.749652
 H     2.410131    -1.179306     5.081812
 C     3.569408    -1.435133    -1.278195
 H     2.665469    -1.891762    -1.692915
 C     4.590237     0.068227     0.297996
 H     4.518164     0.812428     1.094817
 C     4.828727    -1.781663    -1.758784
 H     4.911340    -2.509507    -2.570873
 C     5.847281    -0.292041    -0.177843
 H     6.739105     0.165189     0.260225
 C     5.990380    -1.223530    -1.213633
 C     7.348652    -1.633376    -1.701965
 H     8.084115    -0.825373    -1.577435
 H     7.720926    -2.504878    -1.137537
 H     7.326242    -1.918822    -2.763658
 C     1.405490     2.830052     0.089690
 H     1.351493     2.866475     1.178531
 C     1.695368     1.626672    -1.971605
 H     1.865936     0.687668    -2.505292
 C     1.222573     4.009609    -0.635392
 H     1.037651     4.944450    -0.098442
 C     1.526493     2.804566    -2.685482
 H     1.579179     2.783262    -3.777707
 C     1.270921     4.019505    -2.031321
 C     1.040200     5.277306    -2.815485
 H     1.830725     5.433006    -3.565611
 H     0.082687     5.230162    -3.359902
 H     1.010055     6.161125    -2.163023
 H    -0.834423     2.176370    -1.213319
 H    -1.427319     1.153273    -2.500488
 C    -2.982687     2.327257    -1.541456
 H    -3.318501     2.565573    -0.518295
 H    -3.779853     1.698549    -1.969061
 C    -2.837637     3.610113    -2.346880
 H    -2.079794     4.275613    -1.902101
 H    -2.517944     3.396995    -3.379794
 H    -3.786342     4.165943    -2.398209
 C    -3.609027    -1.319924    -1.746273
 H    -2.825549    -1.515763    -2.482635
 C    -4.334360    -0.375314     0.342087
 H    -4.132510     0.192380     1.253109
 C    -4.894433    -1.794935    -1.977736
 H    -5.102378    -2.352353    -2.895437
 C    -5.618187    -0.866407     0.109998
 H    -6.403331    -0.681470     0.848714
 C    -5.923276    -1.584168    -1.049891
 C    -7.297552    -2.138047    -1.286501
 H    -7.331645    -3.215997    -1.056278
 H    -8.047627    -1.641772    -0.654463
 H    -7.602796    -2.022596    -2.337349
 C    -1.510835     2.113750     1.610305
 H    -1.503168     2.857234     0.812108
 C    -1.612275    -0.165399     2.372731
 H    -1.677174    -1.235865     2.153238
 C    -1.384674     2.541034     2.933782
 H    -1.291548     3.610304     3.143950
 C    -1.500074     0.267317     3.687331
 H    -1.495251    -0.469143     4.495901
 C    -1.376195     1.631506     3.994053
 C    -1.224941     2.085433     5.415817
 H    -2.028402     1.682319     6.051551
 H    -0.270945     1.735841     5.843670
 H    -1.245323     3.181205     5.494913
