 100
scf done:    -2910.901360
 C    -0.572476    -3.992863     0.230514
 H     0.078451    -4.536971     0.937276
 H    -1.523301    -3.856262     0.777714
 C    -0.811629    -4.856295    -1.002471
 H     0.131499    -5.124696    -1.503065
 H    -1.327093    -5.802667    -0.754877
 H    -1.426116    -4.345033    -1.761262
Rh     0.374479    -2.099269    -0.131073
 C    -3.065584    -2.034853    -0.874235
 O    -2.378116    -1.283364     1.599970
 O    -1.806995     0.369310    -0.310006
 C     1.074792     1.014007     1.243878
 O     3.018787    -0.001923    -0.218851
 O     0.974575     0.885298    -1.525198
 P     1.359870    -0.074547    -0.218847
 P    -1.714362    -1.238353     0.071963
 C     1.852184    -3.182005    -0.559840
 O     2.666111    -3.937569    -0.836217
 H    -2.933302    -3.103489    -0.643646
 H    -2.756765    -1.911296    -1.924561
 C    -4.495561    -1.617343    -0.676816
 C    -5.210548    -1.040113    -1.731595
 H    -4.713712    -0.874598    -2.690472
 C    -5.150619    -1.827197     0.543424
 H    -4.606143    -2.281856     1.372522
 C    -6.537040    -0.651752    -1.566384
 H    -7.073788    -0.194095    -2.400882
 C    -6.476784    -1.436765     0.709542
 H    -6.971309    -1.602013     1.669968
 C    -7.174250    -0.842467    -0.341755
 H    -8.214635    -0.536249    -0.208578
 C    -1.561101    -0.930363     2.655498
 C    -0.544390    -1.784385     3.081100
 H    -0.412403    -2.750086     2.591726
 C    -1.744994     0.302450     3.277672
 H    -2.542396     0.964128     2.937232
 C     0.304910    -1.378024     4.108955
 H     1.107706    -2.048347     4.427513
 C    -0.891531     0.690099     4.307112
 H    -1.034368     1.666032     4.778447
 C     0.160118    -0.132022     4.730707
 C     1.123326     0.329891     5.784191
 H     0.619049     0.922352     6.561588
 H     1.904143     0.969171     5.338556
 H     1.626282    -0.517824     6.270964
 C    -2.917240     1.087052    -0.681812
 C    -3.936983     1.376188     0.224728
 H    -3.886570     0.977737     1.237407
 C    -2.982145     1.562301    -1.988237
 H    -2.167165     1.328922    -2.676415
 C    -5.031381     2.120274    -0.195685
 H    -5.839325     2.320728     0.512817
 C    -4.084573     2.314623    -2.390764
 H    -4.133001     2.681284    -3.419743
 C    -5.130673     2.599880    -1.508955
 C    -6.341400     3.368712    -1.949602
 H    -6.550689     4.213830    -1.275574
 H    -7.236342     2.724607    -1.946428
 H    -6.219670     3.768018    -2.966181
 H     0.722852     0.309934     2.010734
 H     0.212681     1.643241     0.978107
 C     2.220745     1.814220     1.784079
 C     2.370503     3.173904     1.497238
 H     1.646587     3.671358     0.848316
 C     3.163127     1.197472     2.617487
 H     3.052413     0.134824     2.850373
 C     3.437839     3.898130     2.025591
 H     3.536906     4.960260     1.787930
 C     4.229787     1.918767     3.145935
 H     4.955162     1.419931     3.793746
 C     4.372269     3.274966     2.849818
 H     5.208907     3.843312     3.263283
 C     3.804145    -0.776730    -1.023405
 C     4.975415    -1.295747    -0.471975
 H     5.209850    -1.066695     0.569117
 C     3.480591    -1.038765    -2.355443
 H     2.568237    -0.622770    -2.786622
 C     5.807232    -2.091708    -1.249483
 H     6.720533    -2.499565    -0.807268
 C     4.324956    -1.844716    -3.116472
 H     4.059336    -2.055024    -4.156050
 C     5.494760    -2.391790    -2.582503
 C     6.374563    -3.296234    -3.395479
 H     7.440304    -3.117524    -3.188213
 H     6.208911    -3.157833    -4.473444
 H     6.170579    -4.355122    -3.164192
 C     1.291176     2.218085    -1.608582
 C     2.598046     2.631793    -1.872554
 H     3.386070     1.888131    -1.994950
 C     0.278805     3.162493    -1.449073
 H    -0.738363     2.824030    -1.247425
 C     2.881719     3.990220    -1.956382
 H     3.911015     4.304896    -2.149469
 C     0.580244     4.520180    -1.543147
 H    -0.220885     5.252990    -1.413136
 C     1.884417     4.960791    -1.791017
 C     2.211040     6.422569    -1.894077
 H     3.089932     6.681010    -1.283403
 H     1.370673     7.047599    -1.560721
 H     2.445345     6.706674    -2.933173
