 110
scf done:    -2393.689636
 C    -1.350057     2.999676    -1.235359
 H    -1.295696     3.407917    -2.257326
 H    -2.406663     2.713405    -1.102334
 C    -0.996417     4.080565    -0.221001
 H     0.016120     4.481390    -0.387095
 H    -1.695772     4.938481    -0.257462
 H    -1.014891     3.702266     0.816629
Rh     0.028446     1.418140    -0.912803
 C    -2.695097     0.966471     1.272024
 C    -3.081613     0.121386    -1.570595
 C    -1.687591    -1.566214     0.274021
 C     2.567514    -1.096381    -1.307248
 C     3.197649     1.373309     0.204853
 C     1.681740    -0.732843     1.451902
 P     1.827191     0.172785    -0.148663
 P    -1.833158     0.209686    -0.205244
 C     1.108476     2.199038    -2.185786
 O     1.733480     2.574003    -3.081348
 H    -2.023621     0.735177     2.114554
 H    -2.627013     2.050990     1.113931
 C    -4.093855     0.530418     1.580961
 C    -4.307751    -0.671169     2.269152
 H    -3.442900    -1.235113     2.628495
 C    -5.209716     1.290560     1.168877
 C    -5.052363     2.623314     0.495780
 H    -4.505625     2.550338    -0.456257
 H    -4.489759     3.331347     1.125213
 H    -6.032018     3.071267     0.281613
 C    -5.589241    -1.162323     2.499607
 H    -5.726203    -2.107256     3.030441
 C    -6.491475     0.783326     1.409842
 H    -7.356772     1.367705     1.084773
 C    -6.690288    -0.436352     2.052612
 H    -7.703991    -0.807518     2.220143
 H    -2.483157    -0.060716    -2.478948
 H    -3.460396     1.145613    -1.687973
 C    -4.220693    -0.884912    -1.464240
 H    -3.808137    -1.907178    -1.458154
 H    -4.755860    -0.769071    -0.508908
 C    -5.241285    -0.794860    -2.603759
 H    -4.690008    -0.885377    -3.559085
 C    -6.222558    -1.958191    -2.511218
 H    -5.703060    -2.928672    -2.548218
 H    -6.954498    -1.935855    -3.333491
 H    -6.782784    -1.916405    -1.562099
 C    -5.986937     0.535518    -2.613038
 H    -6.729062     0.566579    -3.425661
 H    -5.312272     1.392818    -2.755741
 H    -6.523254     0.683589    -1.661049
 H    -2.684745    -1.951280     0.541378
 H    -1.075234    -1.602742     1.187690
 C    -1.073736    -2.401469    -0.840082
 H    -1.658408    -2.261045    -1.764340
 H    -0.072953    -2.004480    -1.076183
 C    -0.983453    -3.903869    -0.562004
 H    -2.008606    -4.260834    -0.347307
 C    -0.481282    -4.636240    -1.801227
 H    -1.123694    -4.439921    -2.673574
 H    -0.451091    -5.725148    -1.642047
 H     0.539955    -4.310546    -2.061696
 C    -0.115503    -4.231608     0.647250
 H    -0.081612    -5.316942     0.827896
 H    -0.488223    -3.757541     1.567185
 H     0.922894    -3.893754     0.488764
 H     1.894003    -1.964180    -1.237226
 H     2.421186    -0.677924    -2.312101
 C     3.985588    -1.509486    -1.068213
 C     4.270459    -2.468013    -0.086777
 H     3.440734    -2.946541     0.440627
 C     5.050396    -0.925052    -1.786879
 C     4.809750     0.042652    -2.910782
 H     4.193053     0.903608    -2.614273
 H     4.282601    -0.443145    -3.748422
 H     5.759610     0.433620    -3.299886
 C     5.578975    -2.815143     0.234763
 H     5.773733    -3.558851     1.010910
 C     6.360212    -1.286207    -1.451363
 H     7.187910    -0.830025    -2.001552
 C     6.633281    -2.208317    -0.443579
 H     7.667596    -2.463548    -0.201750
 H     2.684630     2.272098     0.587218
 H     3.577160     1.668834    -0.785148
 C     4.332070     0.974555     1.138953
 H     3.919623     0.747886     2.136424
 H     4.816481     0.048433     0.792504
 C     5.408171     2.052528     1.307717
 H     4.906309     2.978884     1.646714
 C     6.399467     1.629757     2.386217
 H     5.895543     1.443696     3.347793
 H     7.168728     2.399883     2.552094
 H     6.914209     0.699083     2.094218
 C     6.134345     2.360185     0.002408
 H     6.914226     3.122185     0.155047
 H     5.454930     2.740114    -0.775150
 H     6.621091     1.452633    -0.391069
 H     2.669314    -1.114273     1.757798
 H     1.041890    -1.608773     1.267622
 C     1.090912     0.169106     2.527143
 H     1.708210     1.079169     2.615726
 H     0.102330     0.527701     2.189113
 C     0.961129    -0.456111     3.917909
 H     1.970025    -0.791169     4.224751
 C     0.488450     0.591125     4.919797
 H     1.166545     1.458088     4.947171
 H     0.427702     0.177277     5.938120
 H    -0.514852     0.963400     4.652089
 C     0.042239    -1.671973     3.933549
 H    -0.025997    -2.104281     4.943571
 H     0.393187    -2.467123     3.259427
 H    -0.980578    -1.394178     3.626255
