  92
scf done:    -2606.283865
 C    -1.199434    -3.093861    -0.854310
 H    -1.717834    -3.747290    -0.134680
 H    -1.993782    -2.665742    -1.484448
 C    -0.237757    -3.895912    -1.719770
 H     0.531906    -4.413078    -1.124414
 H    -0.763231    -4.666467    -2.315140
 H     0.300281    -3.255450    -2.439002
Rh    -0.094118    -1.576036     0.145963
 C    -1.128294     0.765899    -2.334288
 O    -3.051445    -0.435092    -1.014640
 O    -1.609290     1.271968     0.310488
 C     1.045400     0.979336     2.398915
 O     2.862926    -0.503316     1.219316
 O     1.544877     1.129438    -0.329020
 P     1.311711     0.007523     0.885495
 P    -1.468752    -0.018849    -0.732023
 C     0.479638    -2.943639     1.302397
 O     0.715218    -3.736420     2.096553
 H    -1.933750     1.470766    -2.592744
 H    -0.207875     1.347311    -2.158791
 C    -0.907309    -0.272384    -3.429309
 H    -1.835929    -0.847682    -3.577499
 H    -0.153853    -1.001709    -3.084599
 C    -0.462000     0.351718    -4.741558
 H    -1.210890     1.064919    -5.121332
 H     0.484921     0.901292    -4.618860
 H    -0.307668    -0.414619    -5.516015
 C    -3.784162    -1.222256    -0.161815
 C    -3.495615    -1.314041     1.196620
 H    -2.661856    -0.745708     1.614627
 C    -4.851154    -1.928538    -0.716916
 H    -5.050115    -1.836746    -1.785969
 C    -4.257000    -2.148330     2.024302
 C    -3.901449    -2.274808     3.476813
 H    -2.907861    -2.736970     3.594746
 H    -3.859347    -1.288917     3.965494
 H    -4.629239    -2.893926     4.019285
 C    -5.620183    -2.741125     0.107469
 H    -6.457335    -3.300805    -0.316497
 C    -5.323025    -2.858141     1.466076
 H    -5.927556    -3.509893     2.101751
 C    -2.273289     2.457021     0.136795
 C    -3.466941     2.566516    -0.575880
 H    -3.905508     1.676919    -1.029354
 C    -1.717386     3.578400     0.759422
 H    -0.792273     3.470067     1.327520
 C    -4.108948     3.805907    -0.695797
 C    -5.386427     3.907704    -1.477957
 H    -5.209650     3.723509    -2.550033
 H    -6.120196     3.160175    -1.139365
 H    -5.841824     4.902711    -1.379296
 C    -2.357571     4.807029     0.645958
 H    -1.926237     5.685025     1.132834
 C    -3.542012     4.925292    -0.080521
 H    -4.037018     5.895901    -0.163629
 H     0.099589     1.513968     2.210936
 H     0.797943     0.202111     3.144311
 C     2.140321     1.898561     2.928368
 H     2.328748     2.711144     2.211031
 H     3.080971     1.330683     3.000714
 C     1.774493     2.487395     4.282405
 H     0.844973     3.076656     4.225164
 H     1.617927     1.698436     5.035485
 H     2.567870     3.152702     4.655177
 C     3.434093    -1.528252     0.510796
 C     3.214797    -1.683146    -0.859263
 H     2.585150    -0.965253    -1.390275
 C     4.251444    -2.416412     1.206511
 H     4.400264    -2.273137     2.277867
 C     3.795850    -2.750069    -1.552955
 C     3.506986    -2.947089    -3.012147
 H     3.316616    -1.989588    -3.518531
 H     4.338449    -3.451034    -3.525344
 H     2.607981    -3.571511    -3.144874
 C     4.843293    -3.468782     0.514362
 H     5.485006    -4.171934     1.050594
 C     4.616307    -3.639034    -0.850412
 H     5.082019    -4.474510    -1.379167
 C     2.364945     2.228091    -0.331560
 C     3.749493     2.096654    -0.251469
 H     4.188330     1.102275    -0.159645
 C     1.772369     3.483433    -0.476223
 H     0.686459     3.555945    -0.554587
 C     4.568474     3.231474    -0.276683
 C     6.057532     3.081798    -0.158805
 H     6.339785     2.736813     0.849096
 H     6.441059     2.336565    -0.872324
 H     6.575291     4.032799    -0.345416
 C     2.585556     4.611689    -0.509723
 H     2.131890     5.599523    -0.621145
 C     3.970765     4.490031    -0.402928
 H     4.599222     5.383842    -0.427165
