  88
scf done:    -4591.641197
 C    -0.257813    -4.149611    -0.366574
 H     0.417268    -4.759013     0.258775
 H    -1.231442    -4.196122     0.154979
 C    -0.379077    -4.785150    -1.746341
 H     0.599652    -4.869097    -2.243419
 H    -0.806665    -5.803457    -1.698987
 H    -1.018554    -4.198861    -2.425887
Rh     0.511143    -2.142133    -0.385206
 C    -2.937306    -2.304352    -1.187532
 O    -2.309417    -1.815473     1.368899
 O    -1.897203     0.110792    -0.311387
 C     0.853050     0.863419     1.363740
 O     2.936289     0.190293    -0.103125
 O     0.864210     1.006615    -1.412347
 P     1.292519    -0.040140    -0.183767
 P    -1.656939    -1.521707    -0.137806
 C     2.127232    -3.030615    -0.769256
 O     3.044745    -3.669403    -1.008608
 H    -2.709093    -3.378299    -1.101242
 H    -2.648932    -2.015411    -2.211042
 C    -4.396724    -2.041684    -0.940134
 C    -5.166267    -1.386597    -1.907819
 H    -4.695362    -1.058422    -2.837585
 C    -5.020385    -2.467843     0.239308
 H    -4.435215    -2.989483     0.998249
 C    -6.515858    -1.124043    -1.689501
 H    -7.093449    -0.588253    -2.446183
 C    -6.371155    -2.208240     0.456813
 H    -6.841927    -2.542522     1.384605
 C    -7.122006    -1.528010    -0.501406
 H    -8.179560    -1.317992    -0.325465
 C    -1.517930    -1.574240     2.470278
 C    -0.426409    -2.398475     2.749963
 H    -0.219096    -3.255534     2.108301
 C    -1.801548    -0.480364     3.285697
 H    -2.656087     0.157259     3.056131
 C     0.404125    -2.102338     3.827371
 H     1.269520    -2.729583     4.046120
 C    -0.976287    -0.185069     4.368171
 H    -1.175395     0.681030     5.000538
 C     0.134942    -0.988230     4.622218
Cl     1.200146    -0.591791     5.926993
 C    -3.069707     0.763551    -0.590661
 C    -4.099662     0.843391     0.346208
 H    -3.997953     0.336548     1.305046
 C    -3.193019     1.381642    -1.833860
 H    -2.369086     1.307074    -2.546381
 C    -5.273258     1.513016     0.023297
 H    -6.100399     1.554951     0.732717
 C    -4.364383     2.061385    -2.156457
 H    -4.481306     2.539731    -3.130084
 C    -5.403496     2.111543    -1.229794
Cl    -6.888118     2.898367    -1.648693
 H     0.566949     0.050276     2.044767
 H    -0.071326     1.411526     1.127533
 C     1.884142     1.732028     2.020085
 C     1.906999     3.116801     1.831498
 H     1.159336     3.587041     1.190219
 C     2.841281     1.154323     2.863395
 H     2.820300     0.075552     3.038841
 C     2.874380     3.904350     2.452257
 H     2.875883     4.984268     2.284666
 C     3.806354     1.938917     3.487640
 H     4.540618     1.470868     4.147799
 C     3.830503     3.318092     3.279041
 H     4.588582     3.934817     3.767660
 C     3.827200    -0.406911    -0.943313
 C     5.041813    -0.822336    -0.396130
 H     5.219520    -0.660335     0.668322
 C     3.565887    -0.590635    -2.303643
 H     2.616668    -0.258437    -2.727824
 C     5.992314    -1.436255    -1.201979
 H     6.943008    -1.771923    -0.785070
 C     4.516229    -1.212294    -3.109585
 H     4.320807    -1.372497    -4.170866
 C     5.722445    -1.635089    -2.556829
Cl     6.901411    -2.412937    -3.559665
 C     1.063559     2.360737    -1.365479
 C     2.338269     2.906038    -1.527832
 H     3.194453     2.248947    -1.681353
 C    -0.038782     3.195364    -1.175940
 H    -1.028422     2.752276    -1.058272
 C     2.513028     4.284494    -1.470760
 H     3.506836     4.721171    -1.578653
 C     0.132021     4.576169    -1.126471
 H    -0.722065     5.237215    -0.971595
 C     1.411568     5.113646    -1.261067
Cl     1.637162     6.828282    -1.157260
