 100
scf done:    -2910.907414
 C     1.080831    -3.422808     1.135643
 H     1.268288    -4.303197     0.502871
 H     2.077185    -3.055992     1.430297
 C     0.269403    -3.796750     2.367333
 H    -0.713992    -4.217038     2.100784
 H     0.787120    -4.548011     2.993478
 H     0.078218    -2.924193     3.016725
Rh    -0.096237    -1.956021     0.155932
 C     1.848980     0.233723     2.189585
 O     3.100033    -1.060388     0.260351
 O     1.443122     0.780247    -0.503134
 C    -1.469487     0.534724    -2.055787
 O    -3.132738    -0.818629    -0.510286
 O    -1.524999     0.851424     0.706312
 P    -1.537172    -0.342167    -0.447936
 P     1.562006    -0.506326     0.536888
 C    -0.830264    -3.342808    -0.881804
 O    -1.134678    -4.132696    -1.657429
 H     1.903151    -0.648028     2.850503
 H     0.895235     0.737915     2.413733
 C     3.022703     1.147090     2.381493
 C     2.840486     2.532553     2.443675
 H     1.830697     2.944994     2.379159
 C     4.322540     0.635636     2.474146
 H     4.477189    -0.443941     2.426626
 C     3.929891     3.390769     2.564098
 H     3.767503     4.470359     2.594704
 C     5.412734     1.491923     2.603942
 H     6.421178     1.076719     2.675001
 C     5.221314     2.872787     2.643008
 H     6.077733     3.544490     2.738938
 C     3.403079    -1.952267    -0.738065
 C     2.678855    -2.007335    -1.925885
 H     1.844896    -1.320860    -2.083824
 C     4.483669    -2.805349    -0.518974
 H     5.033528    -2.738342     0.421208
 C     3.000045    -2.953616    -2.905960
 C     2.160077    -3.051870    -4.145546
 H     1.173546    -3.483714    -3.908203
 H     1.982111    -2.060814    -4.590223
 H     2.631750    -3.689749    -4.905824
 C     4.821162    -3.728215    -1.502885
 H     5.665904    -4.402253    -1.342200
 C     4.081732    -3.810123    -2.683109
 H     4.347418    -4.550443    -3.441837
 C     2.251489     1.882745    -0.649956
 C     3.630517     1.781296    -0.808982
 H     4.106060     0.801397    -0.782592
 C     1.616908     3.124274    -0.691514
 H     0.533847     3.170137    -0.573343
 C     4.405364     2.935164    -0.969091
 C     5.896526     2.819197    -1.082448
 H     6.332691     2.554126    -0.105576
 H     6.184288     2.029530    -1.792668
 H     6.352670     3.762995    -1.412242
 C     2.383566     4.271082    -0.868385
 H     1.893872     5.247411    -0.901544
 C     3.768143     4.180301    -0.997279
 H     4.364537     5.086819    -1.127121
 H    -1.500489    -0.290083    -2.787274
 H    -0.448706     0.945096    -2.081493
 C    -2.505062     1.578614    -2.349190
 C    -2.190615     2.937876    -2.247187
 H    -1.172961     3.234858    -1.984377
 C    -3.809403     1.216108    -2.706559
 H    -4.067352     0.158433    -2.788381
 C    -3.160695     3.912765    -2.463178
 H    -2.898703     4.968370    -2.363040
 C    -4.777850     2.190088    -2.934675
 H    -5.790999     1.890405    -3.214425
 C    -4.459338     3.541882    -2.806358
 H    -5.221821     4.305390    -2.977973
 C    -3.593251    -1.796610     0.335683
 C    -3.239540    -1.814987     1.684071
 H    -2.595910    -1.027212     2.083008
 C    -4.431285    -2.773591    -0.198105
 H    -4.683646    -2.738187    -1.259030
 C    -3.709293    -2.831418     2.524537
 C    -3.289061    -2.867832     3.964457
 H    -2.247544    -3.217256     4.054096
 H    -3.337144    -1.868287     4.422044
 H    -3.921745    -3.546710     4.552909
 C    -4.908795    -3.777360     0.638155
 H    -5.564428    -4.550832     0.231320
 C    -4.549389    -3.810461     1.985385
 H    -4.927212    -4.608513     2.629306
 C    -2.283471     1.986640     0.853160
 C    -3.664889     1.995816     0.681219
 H    -4.176363     1.081644     0.381026
 C    -1.607092     3.141495     1.249378
 H    -0.528323     3.096654     1.405496
 C    -4.387986     3.180514     0.859538
 C    -5.872730     3.182463     0.644683
 H    -6.111256     2.922661    -0.398522
 H    -6.368388     2.438553     1.287691
 H    -6.311264     4.166523     0.860687
 C    -2.324889     4.318042     1.433617
 H    -1.801512     5.227346     1.739110
 C    -3.703790     4.342318     1.231054
 H    -4.259683     5.272594     1.371637
