  72
scf done:    -1696.215380
 C    -1.664775    -1.836295    -1.960932
 H    -1.278932    -2.746189    -2.446649
 H    -2.578288    -2.152978    -1.439550
 C    -1.996717    -0.803407    -3.028522
 H    -2.684744    -1.204822    -3.797508
 H    -2.482180     0.092970    -2.608194
 H    -1.097540    -0.455593    -3.564790
Rh    -0.209044    -0.908661    -0.741833
 C    -2.175265     1.879952     0.539304
 C    -3.612649    -0.618122     0.415774
 C    -1.571860    -0.243089     2.449144
 C     2.608965    -0.545161     1.326372
 C     2.924821     0.179487    -1.528219
 C     1.576453     2.068104     0.413031
 P     1.723359     0.271200    -0.087784
 P    -1.869356     0.052032     0.613827
 C     0.823625    -2.388843    -1.062432
 O     1.415180    -3.382026    -1.089080
 H    -2.899708     2.181532     1.314307
 H    -1.222992     2.367788     0.797369
 C    -2.622570     2.359239    -0.835536
 H    -3.572456     1.873059    -1.115082
 H    -1.890158     2.021180    -1.587686
 C    -2.785444     3.869158    -0.909578
 H    -3.538021     4.226732    -0.188532
 H    -1.838372     4.382779    -0.679101
 H    -3.104195     4.191648    -1.912370
 H    -3.765331    -0.591201    -0.676479
 C    -3.704823    -2.074361     0.864395
 H    -4.637478    -2.525688     0.490328
 H    -2.862943    -2.674820     0.492157
 H    -3.724046    -2.151805     1.962801
 C    -4.706481     0.212555     1.076522
 H    -4.790851     1.224116     0.655715
 H    -5.682680    -0.279941     0.937385
 H    -4.549645     0.310373     2.163392
 H    -2.581128    -0.269303     2.896919
 C    -0.892116    -1.589487     2.680394
 H    -0.751396    -1.763359     3.760020
 H    -1.466743    -2.429558     2.272467
 H     0.090301    -1.610665     2.187098
 C    -0.792719     0.866267     3.145238
 H    -1.273824     1.850700     3.062873
 H    -0.699454     0.633596     4.218206
 H     0.229372     0.949835     2.747102
 H     2.106486    -0.168739     2.234518
 H     2.306102    -1.602333     1.252591
 C     4.122573    -0.479954     1.496620
 H     4.464702     0.564208     1.562722
 H     4.610163    -0.907422     0.605664
 C     4.580521    -1.242170     2.731831
 H     4.141487    -0.816923     3.648788
 H     4.276269    -2.299705     2.681747
 H     5.675311    -1.213394     2.841071
 H     3.261040    -0.871297    -1.448415
 C     2.196794     0.317711    -2.864899
 H     2.874850     0.051249    -3.691731
 H     1.317296    -0.342725    -2.908236
 H     1.856387     1.349512    -3.037368
 C     4.153480     1.083513    -1.498738
 H     4.728945     1.009124    -0.568455
 H     4.827887     0.812295    -2.327508
 H     3.879636     2.138879    -1.645608
 H     0.734832     2.008325     1.121889
 C     2.737499     2.712513     1.160598
 H     2.456993     3.733861     1.467819
 H     2.995182     2.159662     2.075440
 H     3.643591     2.794132     0.545239
 C     1.105060     2.911583    -0.766402
 H     0.287596     2.418376    -1.314115
 H     0.738785     3.890425    -0.417241
 H     1.919183     3.104432    -1.480282
