 104
scf done:    -3758.009978
 C    -2.652246     3.492601     1.661278
 H    -2.513995     4.585285     1.648356
 H    -3.401098     3.297210     0.877232
 C    -3.161301     3.064352     3.031148
 H    -4.136070     3.525251     3.280772
 H    -3.294175     1.971213     3.113749
 H    -2.457386     3.346347     3.830052
Rh    -0.848098     2.438592     1.244326
 O    -1.698333    -0.751212     0.810592
 C    -3.962564     0.773726     0.348493
 C    -1.845170     0.706069    -1.601364
 O     0.989339     0.092464    -0.227005
 C     2.604592     2.224851     0.653263
 C     1.500813     0.192126     2.495244
 P     1.067262     1.235406     1.011718
 P    -2.111877     0.759181     0.227980
 C    -0.029596     4.025583     1.718472
 O     0.464919     5.038869     1.946681
 C    -1.741843    -1.995451     0.250644
 C    -1.054009    -2.313115    -0.922348
 H    -0.485900    -1.548700    -1.446146
 C    -2.382126    -3.006771     0.969154
 H    -2.883318    -2.750690     1.902059
 C    -1.051995    -3.620905    -1.398459
 H    -0.512320    -3.872093    -2.312811
 C    -2.377178    -4.315160     0.501374
 H    -2.885836    -5.104814     1.056538
 C    -1.719710    -4.617056    -0.690313
Cl    -1.714806    -6.247545    -1.281116
 H    -4.200699     1.221409     1.322548
 H    -4.289410     1.491879    -0.421259
 C    -4.639553    -0.553930     0.202673
 C    -4.812416    -1.167634    -1.043494
 H    -4.495674    -0.653786    -1.952781
 C    -5.101281    -1.221218     1.342209
 H    -4.981313    -0.741104     2.318480
 C    -5.400761    -2.425785    -1.132272
 H    -5.524874    -2.898593    -2.109264
 C    -5.699716    -2.482361     1.272033
 C    -6.136140    -3.194866     2.518903
 H    -5.328822    -3.841693     2.903874
 H    -6.397196    -2.488097     3.319571
 H    -7.006275    -3.840775     2.332501
 C    -5.837092    -3.081798     0.015514
 H    -6.297357    -4.070283    -0.064508
 H    -0.762850     0.574120    -1.734255
 H    -2.354842    -0.166782    -2.031546
 C    -2.319145     1.987064    -2.228794
 C    -3.424423     2.009617    -3.087150
 H    -3.929254     1.076864    -3.352411
 C    -1.682386     3.193062    -1.920202
 H    -0.840785     3.178804    -1.215016
 C    -3.878797     3.217786    -3.610625
 H    -4.741431     3.228532    -4.281158
 C    -2.134183     4.416183    -2.424821
 C    -1.435907     5.687130    -2.038929
 H    -0.437117     5.748073    -2.501033
 H    -2.003882     6.574012    -2.352352
 H    -1.290393     5.736782    -0.948673
 C    -3.243852     4.412614    -3.276571
 H    -3.616810     5.358034    -3.679821
 C     1.876153    -0.195722    -1.213509
 C     2.572414    -1.406127    -1.182039
 H     2.414568    -2.090840    -0.349464
 C     2.029244     0.672969    -2.298400
 H     1.444313     1.594856    -2.340296
 C     3.470683    -1.713551    -2.196693
 H     4.035586    -2.646690    -2.169749
 C     2.933919     0.369745    -3.313797
 H     3.077560     1.050882    -4.153808
 C     3.665192    -0.814628    -3.246214
Cl     4.836276    -1.172001    -4.473593
 H     2.515945     2.532415    -0.400086
 H     2.431560     3.137383     1.243809
 C     3.968154     1.679100     0.956940
 C     4.538609     1.893728     2.217689
 H     3.996285     2.476731     2.967455
 C     4.709621     0.974164     0.001638
 H     4.297203     0.830865    -0.997419
 C     5.801328     1.385042     2.516543
 H     6.237806     1.561212     3.502568
 C     5.972783     0.450148     0.284846
 C     6.726107    -0.335669    -0.748461
 H     6.276772    -0.233585    -1.745756
 H     7.778300    -0.018649    -0.807794
 H     6.724569    -1.408987    -0.496503
 C     6.509934     0.660460     1.562058
 H     7.500521     0.265017     1.803806
 H     2.220105     0.783898     3.081976
 H     0.563648     0.151862     3.068855
 C     2.007373    -1.194271     2.230177
 C     1.087639    -2.226815     2.024339
 H     0.021400    -2.010548     2.086721
 C     3.374289    -1.487393     2.162999
 H     4.103502    -0.693038     2.330226
 C     1.525553    -3.515254     1.728860
 H     0.792421    -4.306304     1.551508
 C     3.832179    -2.777385     1.877486
 C     5.303003    -3.071324     1.804895
 H     5.581629    -3.463493     0.813450
 H     5.898447    -2.167089     1.991045
 H     5.595997    -3.832917     2.544967
 C     2.889319    -3.789174     1.651069
 H     3.229145    -4.802054     1.416645
