  96
scf done:    -3006.877570
 C    -0.789778    -1.720318    -3.409227
 H    -0.752787    -2.746651    -3.809069
 H    -1.855076    -1.555037    -3.176086
 C    -0.349957    -0.733381    -4.484032
 H     0.679895    -0.930296    -4.821140
 H    -0.998511    -0.768606    -5.380059
 H    -0.363276     0.312182    -4.127813
Rh     0.490039    -1.484764    -1.726647
 C    -2.268085     0.730825    -1.622554
 C    -2.640911    -2.087246    -0.619305
 C    -1.302823    -0.042228     1.076211
 C     2.453915    -2.368836     1.052821
 C     3.812614    -0.854320    -1.116181
 C     2.183397     0.483077     0.877671
 P     2.173955    -1.018625    -0.203496
 P    -1.436689    -0.655798    -0.684625
 C     1.547192    -2.752734    -2.549281
 O     2.118450    -3.644708    -3.002519
 H    -1.818211     0.680892    -2.623675
 H    -1.902783     1.656186    -1.154458
 C    -3.763012     0.742414    -1.738907
 C    -4.560302     1.500765    -0.873551
 H    -4.088273     2.107239    -0.100507
 C    -4.396205    -0.003030    -2.743743
 H    -3.788672    -0.575370    -3.450959
 C    -5.948432     1.491245    -0.989076
 H    -6.548233     2.089289    -0.298790
 C    -5.784896    -0.015569    -2.860620
 H    -6.256563    -0.605157    -3.650372
 C    -6.568435     0.726752    -1.976862
 H    -7.657235     0.718048    -2.066186
 H    -3.168073    -2.074828    -1.583110
 H    -1.980907    -2.966495    -0.639589
 C    -3.611599    -2.186409     0.516805
 C    -3.239565    -2.822065     1.709769
 H    -2.239544    -3.256087     1.798698
 C    -4.914505    -1.681216     0.417926
 H    -5.239033    -1.199190    -0.504682
 C    -4.121629    -2.929906     2.783068
 H    -3.837202    -3.425973     3.712672
 C    -5.810040    -1.783021     1.478223
 H    -6.824536    -1.387753     1.402704
 C    -5.400388    -2.401169     2.653435
 F    -6.252776    -2.499486     3.672898
 H    -1.365819    -0.940525     1.708495
 H    -0.270896     0.317727     1.131908
 C    -2.211990     1.038755     1.576914
 C    -1.876170     2.383119     1.360146
 H    -0.948867     2.631154     0.837866
 C    -3.384388     0.756312     2.287176
 H    -3.657254    -0.279387     2.489058
 C    -2.695376     3.416280     1.808631
 H    -2.437295     4.463192     1.639719
 C    -4.213467     1.776459     2.744794
 H    -5.129773     1.558735     3.296370
 C    -3.862353     3.097213     2.492901
 F    -4.653504     4.077772     2.926735
 H     2.330693    -3.300783     0.481461
 H     1.582335    -2.301560     1.724203
 C     3.741634    -2.375735     1.813763
 C     3.933793    -1.564005     2.940085
 H     3.112419    -0.941092     3.302397
 C     4.802536    -3.190723     1.395584
 H     4.664216    -3.849741     0.533812
 C     5.155524    -1.544834     3.608054
 H     5.284874    -0.901612     4.481707
 C     6.025165    -3.177289     2.064711
 H     6.838316    -3.820711     1.720632
 C     6.209112    -2.347057     3.169574
 H     7.166912    -2.333173     3.694502
 H     4.315833    -1.829205    -1.023028
 H     3.529016    -0.743630    -2.171803
 C     4.714062     0.269989    -0.702065
 C     4.589817     1.525992    -1.311361
 H     3.864860     1.664207    -2.116845
 C     5.662011     0.123952     0.319178
 H     5.791780    -0.844283     0.804318
 C     5.364612     2.609463    -0.908069
 H     5.265129     3.589401    -1.377927
 C     6.446133     1.196965     0.734680
 H     7.184536     1.085516     1.530673
 C     6.282038     2.431648     0.119431
 F     7.024629     3.464309     0.518457
 H     1.545739     0.244831     1.745694
 H     3.201646     0.608869     1.279099
 C     1.727446     1.777036     0.249563
 C     1.840203     2.959672     0.994416
 H     2.268252     2.921413     1.999568
 C     1.188346     1.862416    -1.038933
 H     1.090173     0.953583    -1.649170
 C     1.421956     4.183662     0.483601
 H     1.509641     5.105522     1.061253
 C     0.760036     3.079927    -1.567409
 H     0.337997     3.145897    -2.572011
 C     0.880498     4.228072    -0.797325
 F     0.474962     5.395864    -1.291671
