 102
scf done:    -2688.689882
 C     1.869644    -1.884021    -2.482161
 H     1.632748    -1.966051    -3.555135
 H     2.797810    -1.296543    -2.432812
 C     2.077399    -3.279267    -1.908499
 H     1.169691    -3.898429    -1.998508
 H     2.889935    -3.822442    -2.427993
 H     2.341392    -3.265474    -0.837795
Rh     0.344432    -0.899814    -1.389880
 C     1.976462     0.144976     1.684776
 C     3.723186     0.285817    -0.597314
 C     1.550749     2.129363    -0.410226
 C    -2.510975     1.083164    -1.368085
 C    -2.743386    -1.421873     0.144446
 C    -1.484729     0.833665     1.328236
 P    -1.551142    -0.086807    -0.261491
 P     1.940183     0.353333    -0.177116
 C    -0.692747    -1.415923    -2.811869
 O    -1.308220    -1.642090    -3.760804
 H     2.455617     1.028861     2.126455
 H     0.923504     0.141850     2.001603
 C     2.710315    -1.087704     2.121964
 C     4.027547    -0.958760     2.577442
 H     4.467699     0.040186     2.636742
 C     2.137291    -2.374773     2.031221
 C     0.724857    -2.573361     1.578533
 H     0.571531    -2.224061     0.534389
 H     0.018950    -2.003278     2.200263
 H     0.435396    -3.632034     1.615222
 C     4.791406    -2.068133     2.926199
 H     5.818998    -1.937435     3.272873
 C     2.922845    -3.481060     2.375501
 H     2.483098    -4.479127     2.297708
 C     4.237553    -3.340288     2.813713
 H     4.824041    -4.224937     3.073173
 C     4.391818    -0.946479    -0.530252
 H     3.853475    -1.845695    -0.227284
 C     4.445626     1.408303    -1.013829
 H     3.951411     2.378262    -1.094556
 C     5.742037    -1.039497    -0.842500
 H     6.237778    -2.011592    -0.771673
 C     5.798783     1.304974    -1.332092
 H     6.341937     2.198354    -1.652987
 C     6.472938     0.083608    -1.250061
 C     7.924603    -0.034955    -1.610355
 H     8.396556     0.951734    -1.718573
 H     8.482175    -0.599925    -0.847619
 H     8.050645    -0.571637    -2.565087
 C     1.899814     3.135473     0.494342
 H     2.452284     2.896344     1.405081
 C     0.855654     2.489266    -1.572806
 H     0.580990     1.696424    -2.277884
 C     1.531491     4.458865     0.260863
 H     1.801384     5.227766     0.990239
 C     0.493181     3.812220    -1.803570
 H    -0.058429     4.067398    -2.713009
 C     0.814939     4.821380    -0.885100
 C     0.419663     6.245684    -1.141107
 H     0.567682     6.873556    -0.251490
 H     1.018893     6.678178    -1.958995
 H    -0.636365     6.319953    -1.442037
 H    -1.931680     2.018601    -1.346358
 H    -2.385178     0.670974    -2.377561
 C    -3.949959     1.319467    -1.036652
 C    -4.300830     2.302992    -0.103155
 H    -3.515084     2.918733     0.339383
 C    -4.964131     0.528697    -1.619487
 C    -4.647258    -0.533336    -2.630883
 H    -4.003294    -1.318289    -2.204841
 H    -4.114382    -0.125707    -3.504599
 H    -5.565669    -1.014478    -2.993481
 C    -5.623726     2.496313     0.284072
 H    -5.870460     3.265018     1.020223
 C    -6.288940     0.743394    -1.224742
 H    -7.075413     0.129696    -1.672545
 C    -6.624674     1.706804    -0.276992
 H    -7.668358     1.845941     0.015202
 C    -2.456291    -2.735025    -0.242604
 H    -1.511425    -2.941753    -0.752318
 C    -3.949026    -1.173843     0.820621
 H    -4.191481    -0.165302     1.160549
 C    -3.357695    -3.766751     0.012221
 H    -3.110521    -4.784591    -0.301454
 C    -4.844731    -2.206797     1.066581
 H    -5.782322    -1.986607     1.584723
 C    -4.571099    -3.520643     0.660705
 C    -5.560767    -4.619961     0.910556
 H    -5.929349    -4.599950     1.947554
 H    -6.439804    -4.512425     0.253933
 H    -5.122694    -5.609768     0.720991
 C    -1.636980     0.166336     2.553186
 H    -1.920101    -0.888094     2.564277
 C    -1.134727     2.188744     1.364035
 H    -0.989056     2.749562     0.439240
 C    -1.434958     0.826646     3.760295
 H    -1.554546     0.274835     4.696978
 C    -0.941713     2.846781     2.576025
 H    -0.661780     3.903677     2.565417
 C    -1.081787     2.181294     3.797304
 C    -0.885075     2.891937     5.103602
 H    -0.306284     2.278947     5.810836
 H    -0.359284     3.847586     4.968000
 H    -1.853518     3.111382     5.583058
