  92
scf done:    -2606.282086
 C     0.155036    -3.335027     1.182877
 H     0.154725    -4.210669     0.514735
 H     1.201420    -3.229162     1.516431
 C    -0.757920    -3.578010     2.377000
 H    -1.798784    -3.765232     2.067822
 H    -0.432902    -4.447388     2.979205
 H    -0.787576    -2.713480     3.062940
Rh    -0.601482    -1.598761     0.201848
 C     1.451620    -0.249667     2.691021
 O     2.749147    -1.355932     0.710872
 O     1.553079     0.830539     0.110385
 C    -1.056442     1.249577    -1.956048
 O    -3.184528     0.247757    -0.783238
 O    -1.493449     1.452993     0.771674
 P    -1.549200     0.331726    -0.461829
 P     1.287460    -0.612226     0.908534
 C    -1.719036    -2.752118    -0.783454
 O    -2.295170    -3.458642    -1.478592
 H     0.960171     0.731790     2.814255
 H     0.775863    -0.975236     3.175444
 C     2.830977    -0.300401     3.338468
 H     3.544689     0.310936     2.766559
 H     3.210237    -1.331333     3.271280
 C     2.795301     0.155592     4.788233
 H     2.463058     1.203202     4.872267
 H     2.101285    -0.457016     5.385660
 H     3.789623     0.083062     5.254165
 C     3.262508    -1.866297    -0.457834
 C     2.471763    -2.519370    -1.399084
 H     1.397157    -2.616305    -1.214291
 C     4.646059    -1.706622    -0.634075
 C     5.464915    -1.005994     0.405417
 H     5.128509     0.034105     0.539852
 H     5.370035    -1.499685     1.384770
 H     6.526420    -0.990974     0.123853
 C     3.060597    -3.012964    -2.561645
 H     2.440031    -3.521496    -3.303098
 C     5.206769    -2.215539    -1.808376
 H     6.282386    -2.098988    -1.967098
 C     4.428880    -2.859589    -2.770954
 H     4.895094    -3.245662    -3.680208
 C     2.734117     1.518806    -0.019481
 C     3.217298     2.279620     1.047514
 H     2.652380     2.304783     1.980354
 C     3.383495     1.511055    -1.263696
 C     2.835406     0.766976    -2.443766
 H     3.548289     0.005784    -2.795856
 H     1.897504     0.256226    -2.199527
 H     2.645952     1.459410    -3.279232
 C     4.395805     3.005792     0.909003
 H     4.773068     3.594231     1.748276
 C     4.568358     2.250185    -1.372313
 H     5.096944     2.246881    -2.329601
 C     5.081267     2.981135    -0.305025
 H     6.009899     3.543513    -0.424302
 H    -0.087077     1.706275    -1.699692
 H    -0.824124     0.451956    -2.682960
 C    -2.020138     2.264003    -2.560929
 H    -2.295250     3.018374    -1.808502
 H    -2.953703     1.749846    -2.835826
 C    -1.415470     2.954097    -3.773478
 H    -0.504549     3.509921    -3.499192
 H    -1.139222     2.228074    -4.555239
 H    -2.121736     3.671576    -4.217833
 C    -4.008663    -0.633926    -0.134756
 C    -3.840562    -0.945813     1.214589
 H    -3.037213    -0.472134     1.782522
 C    -5.030277    -1.215367    -0.899606
 C    -5.158230    -0.880564    -2.353320
 H    -5.285110     0.202401    -2.506646
 H    -4.249531    -1.173647    -2.903291
 H    -6.014925    -1.399341    -2.804066
 C    -4.697325    -1.862188     1.821541
 H    -4.558174    -2.112382     2.875586
 C    -5.880507    -2.121758    -0.261781
 H    -6.679519    -2.588699    -0.843964
 C    -5.720494    -2.451038     1.083824
 H    -6.395508    -3.169650     1.553564
 C    -1.565433     2.821398     0.657649
 C    -0.394511     3.532485     0.397824
 H     0.536014     2.978205     0.280110
 C    -2.791162     3.476253     0.858121
 C    -4.041351     2.709196     1.158545
 H    -4.401581     2.173597     0.267078
 H    -3.867160     1.946265     1.930909
 H    -4.839479     3.380477     1.502936
 C    -0.431071     4.920184     0.292185
 H     0.488610     5.470523     0.080856
 C    -2.795607     4.871613     0.753865
 H    -3.739784     5.401854     0.906053
 C    -1.638586     5.592903     0.464400
 H    -1.680593     6.681536     0.385694
