  80
scf done:    -4287.026086
 C    -1.420936    -3.809641     0.128669
 H    -1.144771    -4.642836    -0.538844
 H    -0.878340    -3.996953     1.072468
 C    -2.919460    -3.816464     0.402839
 H    -3.507225    -3.821946    -0.528483
 H    -3.230694    -4.700309     0.990207
 H    -3.245068    -2.925608     0.966207
Rh    -0.884055    -1.932504    -0.707620
 C     1.957166    -3.520611     0.676242
 O     2.128205    -0.948973    -0.138478
 O     0.963745    -1.551859     2.121562
 C     0.686807     0.574731    -2.734828
 O    -1.808259     0.996011    -1.988591
 O    -0.011761     1.130796    -0.123057
 P    -0.484734     0.174611    -1.399341
 P     0.992068    -1.990542     0.506887
 C    -1.868094    -2.423655    -2.233284
 O    -2.310936    -2.764321    -3.235257
 H     2.836944    -3.318188     1.308475
 H     1.312055    -4.217937     1.234659
 C     2.347393    -4.102201    -0.677645
 H     3.015605    -3.395738    -1.197994
 H     1.442383    -4.182544    -1.303526
 C     3.025979    -5.456490    -0.553984
 H     3.946253    -5.390686     0.047959
 H     2.362983    -6.190615    -0.069488
 H     3.300561    -5.855896    -1.541635
 C     3.447759    -0.822385     0.183051
 C     4.351688    -0.700480    -0.875365
 H     3.978029    -0.764818    -1.899194
 C     3.901341    -0.743756     1.502879
 H     3.189881    -0.834640     2.324009
 C     5.704155    -0.500603    -0.622015
 H     6.415717    -0.403242    -1.443407
 C     5.257295    -0.552632     1.756461
 H     5.622598    -0.491600     2.782857
 C     6.153830    -0.429516     0.696509
Cl     7.837218    -0.184173     1.017433
 C    -0.064887    -0.760741     2.574261
 C    -1.332393    -1.310459     2.758499
 H    -1.494460    -2.368158     2.549038
 C     0.166362     0.586407     2.841504
 H     1.159159     1.006474     2.672914
 C    -2.379140    -0.508808     3.203219
 H    -3.375049    -0.929758     3.348406
 C    -0.877523     1.394454     3.280889
 H    -0.715496     2.455989     3.473485
 C    -2.147414     0.842625     3.451432
Cl    -3.462443     1.854794     3.956813
 H     1.678753     0.462169    -2.265858
 H     0.590957    -0.275163    -3.432748
 C     0.553390     1.898804    -3.479200
 H     0.634160     2.739418    -2.774190
 H    -0.455582     1.963618    -3.914035
 C     1.609621     2.040474    -4.563848
 H     2.625304     2.016774    -4.137058
 H     1.540851     1.226230    -5.303108
 H     1.499291     2.992454    -5.104372
 C    -3.044831     0.796233    -1.432042
 C    -3.237832     0.812521    -0.048905
 H    -2.393643     0.973420     0.623819
 C    -4.122402     0.587160    -2.291524
 H    -3.944847     0.566060    -3.368052
 C    -4.515165     0.625563     0.472825
 H    -4.676891     0.659530     1.551117
 C    -5.398471     0.398055    -1.771520
 H    -6.249299     0.228942    -2.433196
 C    -5.589045     0.417725    -0.389542
Cl    -7.178308     0.182616     0.260221
 C     0.468779     2.406466    -0.188144
 C    -0.406342     3.488645    -0.289107
 H    -1.480952     3.308151    -0.345635
 C     1.845992     2.613877    -0.102107
 H     2.508705     1.752162    -0.008061
 C     0.101185     4.783690    -0.329135
 H    -0.568940     5.640623    -0.413219
 C     2.354981     3.908486    -0.141624
 H     3.429774     4.085810    -0.079504
 C     1.479756     4.987919    -0.261004
Cl     2.110505     6.599991    -0.315082
