 108
scf done:    -3063.901917
 C     2.234512    -1.558500    -2.422836
 H     2.287414    -1.159829    -3.451855
 H     3.049588    -1.063614    -1.874730
 C     2.475697    -3.060018    -2.480422
 H     1.720810    -3.577390    -3.095679
 H     3.466694    -3.312441    -2.905795
 H     2.437717    -3.512045    -1.478110
Rh     0.394216    -0.993658    -1.505925
 C     0.937620    -0.707284     1.988977
 C     3.396703    -0.369023     0.498072
 C     1.357210     1.763890     0.341158
 C    -2.902792    -0.441479    -2.137691
 C    -2.608667    -1.651545     0.425296
 C    -2.024963     1.221437     0.095450
 P    -1.735928    -0.435077    -0.681404
 P     1.575954    -0.067958     0.381424
 C    -0.222246    -1.490739    -3.143142
 O    -0.529437    -1.770283    -4.223150
 H     0.002282    -0.162421     2.167304
 H     0.649495    -1.742086     1.751566
 C     1.844326    -0.668829     3.207982
 H     2.254289     0.343792     3.335166
 H     2.707914    -1.332311     3.045151
 C     1.108654    -1.093831     4.470152
 H     0.275227    -0.408187     4.694347
 H     0.675634    -2.101799     4.360108
 H     1.774488    -1.109610     5.347405
 C     4.414198     0.598189     0.374423
 O     4.043014     1.888428     0.362237
 C     4.945339     2.883446    -0.016583
 H     4.362954     3.812039    -0.085637
 H     5.750760     3.020715     0.727038
 H     5.399724     2.669560    -0.999823
 C     3.799548    -1.714663     0.622376
 O     2.804388    -2.607701     0.811548
 C     3.127006    -3.931727     1.126403
 H     2.180936    -4.438639     1.350154
 H     3.783094    -3.988059     2.012307
 H     3.614742    -4.448016     0.281649
 C     5.143612    -2.095277     0.565653
 H     5.432096    -3.142116     0.644797
 C     5.764079     0.223238     0.299569
 H     6.539358     0.980502     0.190477
 C     6.113886    -1.116427     0.388536
 H     7.166149    -1.404467     0.330035
 C     0.941796     2.603182     1.388878
 O     0.770215     2.045012     2.607021
 C     0.522184     2.862602     3.711998
 H     0.503911     2.201455     4.588842
 H     1.317623     3.615721     3.850428
 H    -0.449191     3.379681     3.631545
 C     1.598076     2.361996    -0.912843
 O     2.146248     1.560200    -1.836235
 C     2.027385     1.870133    -3.196338
 H     2.388357     0.991540    -3.742900
 H     2.639806     2.747214    -3.471822
 H     0.975070     2.048711    -3.468830
 C     1.352244     3.718849    -1.144809
 H     1.539102     4.154248    -2.126286
 C     0.721897     3.970909     1.173691
 H     0.376357     4.608565     1.985136
 C     0.914630     4.511518    -0.090313
 H     0.726037     5.575585    -0.253149
 H    -2.320543     0.046002    -2.929744
 H    -2.947536    -1.509745    -2.408038
 C    -4.297546     0.162960    -2.087701
 H    -4.275911     1.119749    -1.541472
 H    -4.972862    -0.492330    -1.519010
 C    -4.856881     0.378693    -3.487026
 H    -4.229380     1.078975    -4.062150
 H    -4.893458    -0.564771    -4.055204
 H    -5.877872     0.790815    -3.457407
 C    -3.887947    -1.431689     0.980567
 O    -4.414848    -0.205796     0.803909
 C    -5.706150     0.081177     1.249035
 H    -5.899401     1.127056     0.977713
 H    -6.461468    -0.563389     0.765534
 H    -5.800003    -0.025128     2.344341
 C    -2.025695    -2.916519     0.637053
 O    -0.789955    -3.114418     0.149329
 C    -0.327834    -4.413065    -0.087452
 H     0.578499    -4.304439    -0.695267
 H    -1.069094    -5.008338    -0.647245
 H    -0.081763    -4.943253     0.850423
 C    -2.703688    -3.927548     1.337479
 H    -2.238139    -4.901484     1.483592
 C    -4.565457    -2.430539     1.688265
 H    -5.554710    -2.244997     2.104646
 C    -3.964839    -3.674400     1.853663
 H    -4.493113    -4.459495     2.400155
 C    -2.252408     1.434303     1.467164
 O    -2.100674     0.366207     2.274265
 C    -2.552717     0.408872     3.593315
 H    -2.434024    -0.606223     3.993901
 H    -1.963334     1.107946     4.212016
 H    -3.617447     0.695504     3.649016
 C    -2.036576     2.354747    -0.740663
 O    -1.710875     2.138512    -2.030595
 C    -1.814286     3.179495    -2.957693
 H    -1.543848     2.753588    -3.932738
 H    -1.119821     4.003451    -2.721409
 H    -2.843530     3.575726    -3.013048
 C    -2.391711     3.620200    -0.257490
 H    -2.412473     4.482701    -0.921403
 C    -2.620307     2.691492     1.960098
 H    -2.840506     2.828194     3.018372
 C    -2.700583     3.770506     1.087212
 H    -2.985284     4.754049     1.468529
