  92
scf done:    -3600.868605
 C     0.741985    -0.894091     4.047625
 H     0.179173    -1.331140     4.886543
 H     1.455765    -1.676028     3.743886
 C     1.467634     0.356038     4.528286
 H     2.166503     0.140730     5.358920
 H     2.058248     0.841677     3.731403
 H     0.760981     1.117365     4.895640
Rh    -0.513399    -0.276059     2.454498
 O     1.746078     1.166661     0.522787
 C     2.865149    -1.194289     1.573741
 C     0.941360    -1.186815    -0.599421
 O    -2.056286     0.415428    -0.614682
 C    -3.590425     1.062307     1.546585
 C    -1.267961     2.616098     0.635658
 P    -1.832774     0.876599     0.984959
 P     1.299449    -0.378848     1.009126
 C    -1.907336    -0.876515     3.509542
 O    -2.755864    -1.364923     4.112917
 C     2.925978     1.590966    -0.020086
 C     3.747120     2.407442     0.757743
 H     3.432270     2.655956     1.773118
 C     3.283638     1.291715    -1.336206
 H     2.623485     0.689280    -1.960198
 C     4.953055     2.875515     0.246977
 H     5.610146     3.501651     0.852530
 C     4.494239     1.746488    -1.846417
 H     4.798097     1.491647    -2.862419
 C     5.330906     2.523392    -1.047399
Cl     6.863981     3.043043    -1.664845
 H     2.506783    -2.178375     1.917749
 H     3.177386    -0.651328     2.477949
 C     4.009818    -1.358150     0.616271
 C     5.164906    -0.578758     0.750894
 H     5.231389     0.142900     1.567661
 C     3.963646    -2.305483    -0.415821
 H     3.098646    -2.967125    -0.507369
 C     6.217879    -0.694224    -0.151747
 H     7.097688    -0.055935    -0.042233
 C     5.017434    -2.423868    -1.319910
 H     4.959509    -3.166317    -2.119696
 C     6.142458    -1.609633    -1.200510
 H     6.964941    -1.697269    -1.914169
 H     1.834770    -1.093831    -1.235579
 H     0.153397    -0.565197    -1.055439
 C     0.514098    -2.632847    -0.553538
 C     0.451556    -3.343352    -1.759804
 H     0.706914    -2.834784    -2.693507
 C     0.173417    -3.300484     0.628063
 H     0.162294    -2.756200     1.579492
 C     0.055344    -4.676740    -1.787432
 H    -0.009104    -5.204206    -2.741527
 C    -0.213854    -4.639787     0.603577
 H    -0.478355    -5.138485     1.539246
 C    -0.277184    -5.332521    -0.602534
 H    -0.592860    -6.377971    -0.624105
 C    -2.402354    -0.810684    -1.076734
 C    -2.436365    -0.950269    -2.468658
 H    -2.204248    -0.077958    -3.083129
 C    -2.703354    -1.900925    -0.258452
 H    -2.639304    -1.808813     0.827220
 C    -2.751883    -2.176939    -3.038669
 H    -2.770045    -2.298311    -4.122937
 C    -3.024546    -3.129287    -0.831043
 H    -3.238584    -3.990438    -0.197531
 C    -3.039048    -3.265860    -2.214662
Cl    -3.387855    -4.810265    -2.923143
 H    -3.506435     1.398704     2.592117
 H    -3.990015     0.035862     1.586376
 C    -4.480720     1.964524     0.753611
 C    -4.968105     1.577594    -0.501855
 H    -4.714884     0.593277    -0.901287
 C    -4.833132     3.226542     1.248338
 H    -4.474375     3.536001     2.234228
 C    -5.768173     2.438430    -1.247250
 H    -6.132880     2.122211    -2.227315
 C    -5.639087     4.087738     0.505035
 H    -5.904836     5.067250     0.909600
 C    -6.104169     3.697780    -0.749717
 H    -6.733901     4.370874    -1.336136
 H    -0.236884     2.656811     1.014985
 H    -1.886785     3.272680     1.266663
 C    -1.312804     3.045398    -0.804414
 C    -2.401276     3.748521    -1.327951
 H    -3.235857     4.017820    -0.678882
 C    -0.254147     2.718772    -1.660666
 H     0.603182     2.180816    -1.256104
 C    -2.437191     4.102794    -2.675344
 H    -3.300429     4.649439    -3.062785
 C    -0.287007     3.072756    -3.006239
 H     0.554301     2.813563    -3.654260
 C    -1.384107     3.762836    -3.522230
 H    -1.413181     4.042288    -4.578218
