  64
scf done:    -1839.861161
 C     1.776016    -2.633630    -0.891886
 H     1.527696    -3.366694    -1.675802
 H     2.555448    -1.988624    -1.331919
 C     2.322475    -3.345260     0.338856
 H     1.600520    -4.069639     0.749210
 H     3.253387    -3.903238     0.121853
 H     2.560232    -2.643383     1.157453
Rh     0.066423    -1.553455    -0.213550
 C     2.780133     0.609273     0.442637
 O     2.035959     0.379716    -2.078542
 O     0.434032     1.689660    -0.570013
 C    -2.648659     0.699550    -0.198337
 O    -2.753244    -1.194073     1.616545
 O    -0.916689     0.566055     1.991112
 P    -1.567546    -0.378562     0.805016
 P     1.315712     0.293463    -0.602351
 C    -0.957031    -3.042354    -0.688026
 O    -1.598576    -3.890517    -1.124607
 H     2.373035     1.053764     1.367920
 H     3.121484    -0.401565     0.725488
 C     3.950077     1.407996    -0.118469
 H     4.247546     0.972798    -1.085567
 H     3.643127     2.443194    -0.337681
 C     5.141891     1.430701     0.829009
 H     5.456773     0.392929     1.042272
 H     4.832362     1.853635     1.802430
 C     6.328623     2.217582     0.290403
 H     6.628103     1.794356    -0.684638
 H     6.009732     3.253930     0.079233
 C     7.521902     2.231292     1.231984
 H     8.362313     2.807116     0.815683
 H     7.884815     1.210099     1.431054
 H     7.259553     2.680679     2.203407
 C     1.329757    -0.076736    -3.215753
 H     0.801329    -1.019282    -2.992896
 H     0.594563     0.674096    -3.550344
 H     2.064153    -0.241621    -4.015829
 C     0.977631     2.951773    -0.878515
 H     1.529067     3.371088    -0.019941
 H     1.651226     2.901835    -1.749076
 H     0.141196     3.625281    -1.115263
 H    -2.003090     1.551184    -0.470279
 H    -2.778607     0.123205    -1.130972
 C    -4.006011     1.133081     0.339017
 H    -4.557515     0.244461     0.684874
 H    -3.883940     1.775721     1.225445
 C    -4.827601     1.879646    -0.703568
 H    -4.962787     1.234755    -1.591016
 H    -4.260157     2.759395    -1.059286
 C    -6.190005     2.329082    -0.194296
 H    -6.748462     1.446808     0.165206
 H    -6.050153     2.973453     0.692027
 C    -7.012841     3.066648    -1.238160
 H    -7.990426     3.378631    -0.840363
 H    -7.199769     2.432720    -2.119883
 H    -6.492772     3.972183    -1.590398
 C    -2.387445    -2.254137     2.472139
 H    -1.598760    -2.880021     2.019293
 H    -2.020414    -1.874560     3.440605
 H    -3.281205    -2.869451     2.644822
 C    -1.678995     1.419514     2.809852
 H    -1.907957     2.368074     2.294649
 H    -2.623462     0.946993     3.126472
 H    -1.081036     1.646802     3.704256
