  74
scf done:    -1922.297961
 C    -1.086894     3.354097    -0.151098
 H    -0.495352     4.281809    -0.195521
 H    -1.709784     3.364894    -1.059288
 C    -1.951618     3.384531     1.102499
 H    -2.566172     4.302991     1.170074
 H    -2.653189     2.534158     1.157636
 H    -1.342002     3.345830     2.021065
Rh     0.162365     1.652556    -0.017235
 C    -2.552372    -0.545316     0.840139
 C    -2.971284     1.112262    -1.606155
 C    -1.173407    -1.121846    -1.656751
 C     2.485213    -0.929299    -0.837631
 C     3.080227     0.603890     1.557798
 C     1.059206    -1.457431     1.611650
 P     1.643592    -0.035171     0.579897
 P    -1.668904     0.292298    -0.579322
 C     1.564486     2.759262    -0.441971
 O     2.437915     3.389275    -0.859587
 H    -1.776310    -1.193603     1.273381
 H    -2.722476     0.251726     1.577429
 C    -3.796849    -1.337580     0.579063
 C    -3.690760    -2.651931     0.106953
 H    -2.696790    -3.088526    -0.021948
 C    -5.079746    -0.789924     0.794626
 C    -5.262657     0.597624     1.339173
 H    -4.835668     1.363473     0.673839
 H    -4.772042     0.720225     2.318209
 H    -6.328211     0.829648     1.470094
 C    -4.816767    -3.411730    -0.196125
 H    -4.704256    -4.432354    -0.569214
 C    -6.201515    -1.568483     0.490291
 H    -7.195798    -1.143781     0.653895
 C    -6.082565    -2.862417    -0.011444
 H    -6.978051    -3.443246    -0.244093
 H    -2.394723     1.740979    -2.303338
 C    -3.968515     0.253720    -2.370709
 H    -4.562379    -0.395590    -1.714781
 H    -3.469388    -0.388245    -3.111605
 H    -3.480902     1.827258    -0.941944
 H    -4.668231     0.898713    -2.924967
 H    -2.056900    -1.734923    -1.894457
 C    -0.467930    -0.653230    -2.920892
 H     0.344322     0.048119    -2.675177
 H    -1.159717    -0.126895    -3.595891
 H    -0.503828    -1.752423    -1.049540
 H    -0.044878    -1.502741    -3.478659
 H     1.771875    -1.706750    -1.152405
 H     2.524153    -0.197427    -1.654582
 C     3.832914    -1.519040    -0.556900
 C     3.934349    -2.770114     0.065158
 H     3.020407    -3.330473     0.279655
 C     5.015195    -0.821317    -0.888339
 C     4.981146     0.481387    -1.637550
 H     4.387299     1.258536    -1.132665
 H     4.537743     0.353607    -2.638870
 H     5.995867     0.878772    -1.775161
 C     5.168093    -3.321092     0.399931
 H     5.217349    -4.298820     0.884984
 C     6.246581    -1.388705    -0.542491
 H     7.162888    -0.848448    -0.796066
 C     6.333271    -2.619470     0.103468
 H     7.310590    -3.034360     0.360805
 H     3.725556     1.112745     0.825329
 C     2.717314     1.580567     2.667278
 H     2.159340     1.101095     3.483164
 H     2.093624     2.400484     2.279355
 H     3.661728    -0.252221     1.937236
 H     3.627847     2.019105     3.103450
 H     1.909282    -2.131017     1.805375
 C     0.390702    -1.046592     2.916526
 H    -0.309573    -0.209817     2.766113
 H     1.130345    -0.725643     3.662876
 H     0.352202    -2.017864     0.976347
 H    -0.170745    -1.886055     3.354508
