  80
scf done:    -2449.150620
 C     0.955259    -3.234227     0.804951
 H     1.243749    -3.661076     1.778297
 H    -0.011539    -3.699161     0.547309
 C     1.983397    -3.573185    -0.267070
 H     2.985123    -3.191458    -0.011824
 H     2.076468    -4.665736    -0.413822
 H     1.713858    -3.147022    -1.247395
Rh     0.904383    -1.110140     0.833709
 C    -2.312848    -2.076377     1.714911
 O    -2.046450     0.133564     0.171644
 O    -1.808857    -2.256690    -0.839617
 C     0.065014     2.298649     1.588004
 O     2.433961     1.844168     0.556775
 O     0.390865     1.529339    -1.006044
 P     0.930628     1.118361     0.513987
 P    -1.267008    -1.326875     0.430909
 C     2.314171    -1.173978     2.081990
 O     3.043072    -1.213647     2.966851
 H    -3.363377    -2.006613     1.385481
 H    -2.045812    -3.145074     1.732613
 C    -2.093945    -1.439482     3.081471
 H    -2.274795    -0.353306     3.015427
 H    -1.029731    -1.547818     3.350218
 C    -2.981010    -2.043533     4.157383
 H    -4.048177    -1.910403     3.917865
 H    -2.797680    -3.124470     4.263200
 H    -2.796056    -1.576684     5.136506
 C    -3.386346     0.290815    -0.061398
 C    -4.181552     0.866240     0.931088
 H    -3.726263     1.139581     1.884972
 C    -3.935177    -0.052714    -1.298767
 H    -3.295601    -0.488664    -2.067186
 C    -5.534499     1.090399     0.686104
 H    -6.154920     1.543016     1.463230
 C    -5.290368     0.172892    -1.530246
 H    -5.720087    -0.096882    -2.497822
 C    -6.094091     0.741742    -0.542630
 H    -7.155214     0.917159    -0.732040
 C    -1.055731    -2.382325    -1.978292
 C    -1.015868    -3.635660    -2.588039
 H    -1.577667    -4.456631    -2.139175
 C    -0.348607    -1.304424    -2.515300
 H    -0.385724    -0.321359    -2.040601
 C    -0.249568    -3.814943    -3.736202
 H    -0.212685    -4.798985    -4.209500
 C     0.422821    -1.501839    -3.660676
 H     0.980908    -0.659018    -4.076076
 C     0.478916    -2.752270    -4.273114
 H     1.085233    -2.899549    -5.169396
 H     0.326249     3.323872     1.280296
 H    -1.004918     2.144867     1.371337
 C     0.366708     2.051659     3.061509
 H     1.441233     2.218629     3.243847
 H     0.183136     0.987914     3.290248
 C    -0.462788     2.933494     3.980389
 H    -0.280892     4.002165     3.784781
 H    -1.540627     2.751926     3.838369
 H    -0.228225     2.741762     5.038205
 C     3.538575     1.174649     0.100604
 C     4.737187     1.365218     0.786824
 H     4.747049     2.030847     1.651727
 C     3.481767     0.321019    -1.004758
 H     2.543040     0.185920    -1.545975
 C     5.882644     0.693633     0.368372
 H     6.819686     0.840500     0.910656
 C     4.632846    -0.355407    -1.404942
 H     4.580987    -1.033260    -2.260110
 C     5.834856    -0.173286    -0.723965
 H     6.733256    -0.706413    -1.042019
 C     0.047134     2.795718    -1.406865
 C     1.024380     3.770712    -1.610658
 H     2.071041     3.527632    -1.422428
 C    -1.300114     3.071938    -1.640321
 H    -2.038216     2.286631    -1.470087
 C     0.639107     5.036486    -2.049151
 H     1.400898     5.803014    -2.210435
 C    -1.670001     4.339449    -2.083468
 H    -2.724641     4.556492    -2.269024
 C    -0.704393     5.325459    -2.286727
 H    -0.998573     6.318671    -2.632948
