 102
scf done:    -2688.673293
 C    -0.900124     0.346415    -3.639990
 H    -0.673488    -0.210373    -4.563001
 H    -1.963690     0.137028    -3.446143
 C    -0.691831     1.836046    -3.882042
 H     0.347576     2.057696    -4.172975
 H    -1.343384     2.229498    -4.685985
 H    -0.904325     2.442062    -2.983946
Rh     0.375873    -0.183819    -2.036476
 C    -2.359049     1.395854    -0.290398
 C    -2.858327    -1.300141    -1.491648
 C    -1.235372    -1.094629     0.974633
 C     2.445804    -2.013143     0.185397
 C     3.660659     0.353711    -1.194995
 C     1.948352     0.677669     1.124704
 P     2.063912    -0.298086    -0.444489
 P    -1.540677    -0.249296    -0.668072
 C     1.496198    -0.893266    -3.309245
 O     2.130166    -1.482792    -4.072899
 H    -1.855967     1.760474     0.617489
 H    -2.010934     2.046243    -1.104076
 C    -3.851837     1.476968    -0.143679
 C    -4.444571     1.305993     1.113511
 H    -3.808636     1.135939     1.980543
 C    -4.681078     1.755937    -1.254037
 C    -4.116530     2.085069    -2.605444
 H    -3.440958     1.309479    -2.994349
 H    -3.526134     3.015437    -2.572758
 H    -4.919401     2.228403    -3.341117
 C    -5.824463     1.348821     1.282597
 H    -6.250581     1.203307     2.277849
 C    -6.069325     1.781369    -1.068436
 H    -6.709302     1.986876    -1.930904
 C    -6.646796     1.570331     0.181112
 H    -7.733360     1.596842     0.293076
 H    -2.289343    -1.888632    -2.225191
 H    -3.487201    -0.602760    -2.060979
 C    -3.713314    -2.197917    -0.652054
 C    -4.973367    -1.790992    -0.197039
 H    -5.344800    -0.798666    -0.456467
 C    -3.274573    -3.490034    -0.328122
 H    -2.309153    -3.838948    -0.706736
 C    -5.757255    -2.638426     0.581884
 H    -6.734875    -2.295166     0.928685
 C    -4.056379    -4.339265     0.453175
 H    -3.694522    -5.341727     0.694217
 C    -5.300568    -3.912730     0.917623
 H    -5.916183    -4.576483     1.529309
 H    -0.164380    -0.936592     1.139342
 H    -1.362331    -2.167363     0.768654
 C    -1.985872    -0.696869     2.207572
 C    -3.080012    -1.435216     2.672552
 H    -3.404775    -2.321432     2.125983
 C    -1.579498     0.427414     2.940578
 H    -0.725793     1.017942     2.598714
 C    -3.763833    -1.044599     3.821576
 H    -4.620585    -1.631765     4.160874
 C    -2.261675     0.818635     4.090611
 H    -1.932012     1.704088     4.639481
 C    -3.362936     0.085986     4.533016
 H    -3.902718     0.392100     5.432228
 H     1.640526    -2.220364     0.908456
 H     2.246251    -2.663397    -0.676374
 C     3.788608    -2.284228     0.788398
 C     4.043134    -1.923793     2.117419
 H     3.241406    -1.472305     2.707251
 C     4.811386    -2.899112     0.033871
 C     4.580396    -3.373919    -1.373420
 H     4.205253    -2.583134    -2.041005
 H     3.834311    -4.185088    -1.403715
 H     5.509057    -3.763821    -1.811474
 C     5.288982    -2.129043     2.700916
 H     5.462909    -1.832449     3.737657
 C     6.059521    -3.098289     0.636714
 H     6.854933    -3.571541     0.054628
 C     6.307646    -2.713936     1.952456
 H     7.293113    -2.880730     2.393435
 H     3.325785     0.946277    -2.058167
 H     4.186360    -0.522672    -1.601873
 C     4.564336     1.174841    -0.323800
 C     5.600604     0.594746     0.417814
 H     5.784765    -0.477592     0.340772
 C     4.369124     2.559271    -0.221509
 H     3.576356     3.035488    -0.802990
 C     6.399716     1.370387     1.255005
 H     7.200198     0.892326     1.824949
 C     5.164156     3.335567     0.617782
 H     4.987267     4.411670     0.685337
 C     6.180648     2.742537     1.365350
 H     6.805465     3.349752     2.024757
 H     2.961458     0.768768     1.550640
 H     1.372755     0.072886     1.844925
 C     1.320077     2.044114     1.009351
 C     0.902726     2.598507    -0.205332
 H     1.013468     2.021941    -1.135013
 C     1.143922     2.802405     2.175868
 H     1.477425     2.393286     3.134052
 C     0.319381     3.864602    -0.253876
 H     0.001626     4.271763    -1.216976
 C     0.555229     4.062994     2.132573
 H     0.423963     4.632130     3.056088
 C     0.137628     4.599942     0.914041
 H    -0.325414     5.588688     0.877624
