  68
scf done:    -1843.734155
 C     0.430863    -2.108845     2.125322
 H    -0.160704    -3.038407     2.157490
 H     1.409557    -2.415835     1.718184
 C     0.621314    -1.567707     3.537505
 H    -0.342078    -1.333858     4.018231
 H     1.146304    -2.285370     4.197177
 H     1.212448    -0.635501     3.550965
Rh    -0.527216    -0.572257     1.009139
 C     2.938273     0.003884     0.969121
 C     1.954852    -1.992770    -0.925182
 C     1.667689     0.821805    -1.534152
 C    -2.225523     1.483348    -1.465998
 C    -3.106192     1.736927     1.235676
 C    -0.581209     2.904716     0.452718
 P    -1.577464     1.350879     0.275102
 P     1.489307    -0.391651    -0.136030
 C    -2.108363    -1.385902     1.512365
 O    -3.072322    -1.982651     1.714573
 H     2.958212    -0.808239     1.712110
 H     2.640216     0.915322     1.509835
 C     4.266809     0.187015     0.307772
 C     4.726060     1.467939    -0.025837
 H     4.127519     2.339979     0.252509
 C     5.066233    -0.912972    -0.032081
 H     4.739493    -1.918741     0.243848
 C     5.928426     1.644789    -0.706666
 H     6.265867     2.652975    -0.959179
 C     6.268425    -0.739570    -0.713564
 H     6.875502    -1.610936    -0.971002
 C     6.700892     0.539954    -1.061618
 H     7.643366     0.675784    -1.596948
 H     2.193175    -2.683324    -0.102312
 C     0.827482    -2.564904    -1.770504
 H     0.543917    -1.888760    -2.592934
 H    -0.065492    -2.726229    -1.147194
 H     2.877308    -1.857090    -1.509687
 H     1.120671    -3.526279    -2.219343
 H     1.927571     1.782240    -1.058766
 C     2.639011     0.509426    -2.663672
 H     2.332034    -0.385023    -3.225206
 H     3.663828     0.348314    -2.302107
 H     0.652183     0.953006    -1.938010
 H     2.668524     1.346770    -3.378319
 H    -1.358122     1.384478    -2.137646
 H    -2.656159     2.483836    -1.625698
 C    -3.243929     0.417954    -1.745933
 C    -4.603620     0.731868    -1.846025
 H    -4.921667     1.774899    -1.759831
 C    -2.856228    -0.923764    -1.855471
 H    -1.800591    -1.183010    -1.745845
 C    -5.553942    -0.267034    -2.052928
 H    -6.611410    -0.002363    -2.129044
 C    -3.803637    -1.922546    -2.059934
 H    -3.482666    -2.964329    -2.133381
 C    -5.156493    -1.598235    -2.159189
 H    -5.900102    -2.383138    -2.315760
 H    -3.793554     0.897738     1.041822
 C    -2.844667     1.882035     2.726413
 H    -2.216510     2.758886     2.949687
 H    -2.325054     0.994144     3.119653
 H    -3.586759     2.639056     0.821244
 H    -3.787006     2.000109     3.282507
 H     0.245803     2.809814    -0.267652
 C    -1.295802     4.235506     0.280192
 H    -2.077356     4.383155     1.040178
 H    -1.771321     4.325271    -0.708492
 H    -0.114805     2.834885     1.449504
 H    -0.586846     5.072664     0.375513
