  96
scf done:    -2010.490253
 C     1.137629    -3.096249     0.629675
 H     1.653311    -3.744011    -0.099599
 H     1.916396    -2.781262     1.341140
 C     0.078180    -3.900164     1.374919
 H    -0.669761    -4.332074     0.690107
 H     0.514827    -4.740966     1.948122
 H    -0.477869    -3.280661     2.099369
Rh     0.167600    -1.442561    -0.279149
 C     0.983895     0.757027     2.435205
 C     3.249302    -0.580876     1.290156
 C     1.978121     1.543231    -0.171053
 C    -0.940980     1.035232    -2.579242
 C    -2.963585    -0.661615    -1.395327
 C    -1.831602     1.469366     0.206198
 P    -1.351099     0.149438    -1.009863
 P     1.576777     0.044789     0.833253
 C    -0.308622    -2.624615    -1.611442
 O    -0.487386    -3.308882    -2.523282
 H     1.831005     1.183475     2.999193
 H     0.314161     1.597272     2.186530
 C     0.233836    -0.274105     3.271189
 H     0.905995    -1.115060     3.513197
 H    -0.565046    -0.716711     2.649765
 C    -0.351392     0.305107     4.548761
 H     0.433765     0.725025     5.197904
 H    -1.063213     1.117296     4.326982
 H    -0.889056    -0.460430     5.128392
 H     3.813928     0.224536     1.788631
 H     3.095053    -1.367850     2.045892
 C     4.009148    -1.141739     0.097206
 H     3.339047    -1.816859    -0.462629
 H     4.262268    -0.322173    -0.599348
 C     5.280728    -1.881302     0.486498
 H     5.018968    -2.708228     1.171350
 H     5.940988    -1.208790     1.065049
 C     6.045267    -2.438965    -0.705744
 H     5.376772    -3.104089    -1.279962
 H     6.301579    -1.611073    -1.390770
 C     7.307615    -3.191066    -0.316682
 H     7.836874    -3.582305    -1.198804
 H     7.075950    -4.046537     0.338129
 H     8.008896    -2.540225     0.230500
 H     2.291450     1.166717    -1.159122
 H     1.015312     2.051518    -0.342268
 C     2.997774     2.527544     0.381878
 H     2.704376     2.846171     1.397530
 H     3.977348     2.031968     0.490761
 C     3.161502     3.758548    -0.500224
 H     2.184146     4.264588    -0.605947
 H     3.442693     3.439547    -1.520465
 C     4.190451     4.752305     0.020365
 H     3.907995     5.063103     1.041965
 H     5.164586     4.242182     0.123400
 C     4.346067     5.979044    -0.863664
 H     5.095970     6.677309    -0.462353
 H     3.395424     6.528831    -0.955354
 H     4.662695     5.700079    -1.881571
 H     0.064029     1.462818    -2.427671
 H    -0.794664     0.218774    -3.308501
 C    -1.884975     2.090646    -3.140286
 H    -1.950451     2.937893    -2.437739
 H    -2.905864     1.681087    -3.220575
 C    -1.434921     2.601842    -4.501302
 H    -0.426526     3.042563    -4.447048
 H    -1.396706     1.785457    -5.239891
 H    -2.116732     3.373547    -4.890074
 H    -3.718703     0.080592    -1.702422
 H    -2.768629    -1.303691    -2.271190
 C    -3.466525    -1.510778    -0.234838
 H    -2.645708    -2.172536     0.095557
 H    -3.695677    -0.864664     0.631889
 C    -4.692390    -2.344068    -0.577706
 H    -4.455860    -2.994898    -1.438963
 H    -5.510542    -1.682045    -0.917112
 C    -5.180692    -3.200591     0.582243
 H    -4.355412    -3.853172     0.917384
 H    -5.410964    -2.546850     1.442523
 C    -6.397308    -4.045439     0.241027
 H    -6.724645    -4.652732     1.098537
 H    -6.183019    -4.734644    -0.591586
 H    -7.248682    -3.416136    -0.065356
 H    -1.717206     0.999701     1.197112
 H    -1.043387     2.240412     0.152758
 C    -3.206450     2.118955     0.116890
 H    -3.366777     2.557601    -0.880495
 H    -3.987781     1.350027     0.235835
 C    -3.407590     3.194276     1.176849
 H    -2.634989     3.976041     1.056508
 H    -3.233807     2.756558     2.177262
 C    -4.786716     3.837608     1.139128
 H    -4.957001     4.267607     0.136099
 H    -5.554100     3.052596     1.260068
 C    -4.981690     4.911722     2.196850
 H    -5.986774     5.356715     2.144349
 H    -4.250355     5.727386     2.077681
 H    -4.852435     4.501295     3.211295
