  84
scf done:    -5582.401040
 C     1.525981    -3.634039    -2.549323
 H     1.529087    -3.805261    -3.631503
 H     2.558506    -3.636406    -2.181814
 C     0.576399    -4.528949    -1.785460
 H     0.001490    -5.210731    -2.428004
 H     1.069967    -5.111921    -0.992410
 H    -0.219932    -3.928616    -1.235446
Rh     0.370182    -2.014354    -1.925036
 O     2.332866    -1.687934     0.946170
 O     3.527261    -1.527165    -1.224688
 O     1.924172     0.382276    -0.481749
 O    -1.192685    -0.308793     0.506934
 O    -1.439681     0.771821    -1.797000
 O    -2.745171    -1.361617    -1.222832
 P    -1.242313    -0.698921    -1.086459
 P     2.019927    -1.261948    -0.652823
 C    -0.059466    -1.597042    -3.707959
 O    -0.238477    -1.211986    -4.774287
 C     1.276023    -1.829043     1.808968
 C     0.526554    -3.005673     1.804600
 H     0.803615    -3.812665     1.125160
 C     0.952410    -0.793578     2.684009
 H     1.533858     0.128885     2.671743
 C    -0.562146    -3.138535     2.661160
 H    -1.154765    -4.055009     2.670254
 C    -0.134176    -0.921328     3.542310
 H    -0.408681    -0.108155     4.215442
 C    -0.895328    -2.087689     3.514357
Cl    -2.280677    -2.226365     4.548382
 C     4.751232    -1.155922    -0.715842
 C     5.253715    -1.730892     0.449314
 H     4.667488    -2.484809     0.973518
 C     5.493116    -0.208411    -1.418786
 H     5.083628     0.211414    -2.338423
 C     6.479888    -1.301967     0.950167
 H     6.881572    -1.727197     1.871245
 C     6.714988     0.223772    -0.918245
 H     7.289630     0.992297    -1.436948
 C     7.195543    -0.314335     0.275751
Cl     8.693874     0.256736     0.929774
 C     2.924379     1.279670    -0.199916
 C     3.144755     2.298417    -1.125221
 H     2.522957     2.339237    -2.021458
 C     3.687741     1.205999     0.966157
 H     3.517207     0.399683     1.678067
 C     4.162714     3.222412    -0.910693
 H     4.356237     4.016134    -1.633912
 C     4.714291     2.120199     1.175640
 H     5.345955     2.049943     2.062194
 C     4.954924     3.117924     0.231756
Cl     6.262929     4.225461     0.472670
 C    -1.475242     0.885986     1.119724
 C    -2.594074     0.986922     1.943735
 H    -3.250122     0.126431     2.074244
 C    -0.606209     1.964975     0.962107
 H     0.266915     1.854095     0.319746
 C    -2.857686     2.185473     2.600432
 H    -3.731814     2.279669     3.246408
 C    -0.870085     3.164475     1.616491
 H    -0.201405     4.018460     1.498241
 C    -1.999276     3.271751     2.429189
Cl    -2.333636     4.765239     3.239130
 C    -2.621326     1.356251    -2.185041
 C    -3.175154     2.383135    -1.422855
 H    -2.676400     2.709846    -0.510552
 C    -3.237859     0.934326    -3.362746
 H    -2.779318     0.140994    -3.955454
 C    -4.367513     2.975992    -1.827733
 H    -4.814947     3.776556    -1.236925
 C    -4.432881     1.521943    -3.766288
 H    -4.930926     1.196692    -4.680820
 C    -4.997175     2.536435    -2.991771
Cl    -6.490933     3.259824    -3.484441
 C    -3.754544    -1.343738    -0.290487
 C    -4.873351    -0.538687    -0.494411
 H    -4.937124     0.083724    -1.386972
 C    -3.665144    -2.160712     0.835644
 H    -2.778664    -2.779339     0.980072
 C    -5.897118    -0.531324     0.448419
 H    -6.775013     0.100316     0.305112
 C    -4.685788    -2.154369     1.781130
 H    -4.611524    -2.768950     2.678570
 C    -5.794874    -1.331072     1.586449
Cl    -7.057180    -1.302170     2.771410
