 116
scf done:    -3368.530976
 C     1.899872    -2.608831    -1.234810
 H     2.007121    -2.746814    -2.323337
 H     2.858827    -2.192273    -0.888195
 C     1.678888    -3.966097    -0.583265
 H     0.831624    -4.505915    -1.037771
 H     2.566044    -4.622079    -0.673657
 H     1.461616    -3.874496     0.489415
Rh     0.342108    -1.184951    -0.888243
 C     2.335985    -0.129040     1.712527
 C     3.612968     0.430623    -0.936241
 C     1.624158     2.172533     0.046323
 C    -1.793895     1.805822    -0.201425
 C    -3.152839    -0.479889    -0.982108
 C    -1.692570    -0.647825     1.583167
 P    -1.552869    -0.051863    -0.159981
 P     1.989324     0.350306    -0.048014
 C    -0.676136    -2.437538    -1.725011
 O    -1.297278    -3.204861    -2.329079
 H     1.404653     0.159233     2.218716
 H     3.133538     0.500547     2.109456
 C     2.630340    -1.573450     1.979903
 C     3.872543    -2.133519     1.656627
 H     4.611184    -1.530711     1.121686
 C     1.697762    -2.364878     2.658486
 H     0.721248    -1.945082     2.906009
 C     4.173906    -3.447093     2.008089
 H     5.145505    -3.869715     1.739996
 C     2.004513    -3.673132     3.027412
 H     1.260915    -4.268987     3.562915
 C     3.244863    -4.219890     2.704691
 H     3.485430    -5.248061     2.985691
 C     4.778118     0.944474    -0.327370
 O     4.633424     1.469059     0.906862
 C     5.748031     1.968365     1.586616
 H     5.385976     2.316146     2.562524
 H     6.514754     1.191298     1.749591
 H     6.207246     2.818202     1.052375
 C     3.721267     0.001390    -2.279993
 O     2.594179    -0.343074    -2.906890
 C     2.639120    -0.980894    -4.147748
 H     1.611210    -1.303814    -4.358715
 H     3.287791    -1.872721    -4.128525
 H     2.982305    -0.300086    -4.947996
 C     4.965066    -0.030375    -2.929996
 H     5.041180    -0.387967    -3.955701
 C     6.019504     0.918327    -0.974126
 H     6.914715     1.296311    -0.483026
 C     6.098450     0.414862    -2.266956
 H     7.065196     0.389097    -2.775639
 C     1.750088     3.047427     1.142900
 O     2.219094     2.552976     2.309169
 C     2.646342     3.427162     3.310441
 H     3.112435     2.805666     4.087210
 H     3.388090     4.151387     2.930984
 H     1.812949     3.987973     3.769512
 C     1.167637     2.731127    -1.167455
 O     1.115678     1.870105    -2.191101
 C     0.646282     2.270972    -3.442095
 H     0.742570     1.395528    -4.094343
 H     1.246657     3.098782    -3.858141
 H    -0.414718     2.572671    -3.402828
 C     0.797070     4.074388    -1.284406
 H     0.425744     4.471253    -2.228145
 C     1.381711     4.397605     1.035090
 H     1.470072     5.062389     1.893337
 C     0.902057     4.894850    -0.169796
 H     0.610116     5.945123    -0.240873
 H    -1.513151     2.031904    -1.240229
 H    -1.041467     2.256545     0.452378
 C    -3.177320     2.308010     0.071057
 C    -3.648536     2.519879     1.373028
 H    -2.978972     2.334222     2.212071
 C    -4.059562     2.539558    -0.992907
 H    -3.711554     2.374205    -2.015890
 C    -4.955350     2.942296     1.602671
 H    -5.299402     3.102015     2.628104
 C    -5.369687     2.954561    -0.768023
 H    -6.038999     3.117105    -1.616412
 C    -5.825472     3.157159     0.533658
 H    -6.852264     3.485006     0.714332
 C    -4.372320    -0.699162    -0.311347
 O    -4.358993    -0.556494     1.022369
 C    -5.540977    -0.667191     1.756616
 H    -5.268878    -0.480322     2.803429
 H    -6.285357     0.083264     1.439649
 H    -5.982147    -1.676578     1.678004
 C    -3.170543    -0.496994    -2.386490
 O    -2.031544    -0.111658    -3.003419
 C    -1.804025    -0.507688    -4.326894
 H    -0.744518    -0.307638    -4.531204
 H    -2.421273     0.064429    -5.042385
 H    -1.991952    -1.585498    -4.459372
 C    -4.323621    -0.841369    -3.102551
 H    -4.313738    -0.870634    -4.191503
 C    -5.532903    -1.036683    -1.017573
 H    -6.467882    -1.220988    -0.490383
 C    -5.491706    -1.117327    -2.404787
 H    -6.398212    -1.381632    -2.954721
 C    -2.037967    -2.003559     1.780922
 O    -2.376481    -2.683920     0.677284
 C    -2.491984    -4.078402     0.711793
 H    -2.640862    -4.396055    -0.327299
 H    -1.571583    -4.545648     1.101034
 H    -3.354933    -4.402813     1.319627
 C    -1.299748     0.085809     2.713667
 O    -0.879289     1.358551     2.506571
 C    -0.619441     2.185418     3.603834
 H    -0.395809     3.177802     3.192016
 H     0.248012     1.832576     4.186347
 H    -1.495704     2.262369     4.271299
 C    -1.313196    -0.481127     3.996534
 H    -1.011623     0.102942     4.864415
 C    -2.039684    -2.582543     3.053664
 H    -2.315953    -3.628064     3.183927
 C    -1.688239    -1.809165     4.154500
 H    -1.688713    -2.254465     5.151945
