  88
scf done:    -2154.148446
 C     0.343058    -2.879991    -2.043467
 H    -0.205003    -2.824868    -2.999736
 H     1.389976    -2.637521    -2.296752
 C     0.288648    -4.298266    -1.487369
 H    -0.746706    -4.652406    -1.360561
 H     0.802414    -5.024984    -2.144971
 H     0.765714    -4.374790    -0.495738
Rh    -0.520577    -1.511466    -0.644654
 C     1.465919     0.258030    -2.809272
 O     1.472050     1.126962    -0.232745
 O     2.829906    -0.943418    -0.928754
 C    -1.847636     1.566168     0.450461
 O    -2.852432    -0.778963     1.469906
 O    -0.626438     0.211108     2.296225
 P    -1.437820    -0.148549     0.908893
 P     1.323566    -0.291300    -1.074819
 C    -2.183620    -2.274762    -1.062919
 O    -3.211065    -2.628090    -1.430347
 H     2.392874     0.847786    -2.909670
 H     1.606065    -0.655560    -3.407920
 C     0.241314     1.030869    -3.280964
 H     0.031338     1.855112    -2.578056
 H    -0.631989     0.359990    -3.224000
 C     0.394723     1.582714    -4.688431
 H     1.238486     2.289224    -4.753287
 H     0.584048     0.776521    -5.414724
 H    -0.512305     2.116372    -5.010387
 C     2.607889     1.975809    -0.347593
 H     2.928575     2.205275     0.682947
 H     3.437896     1.433174    -0.828294
 C     2.301234     3.259521    -1.092776
 H     3.237380     3.843307    -1.147975
 H     2.031027     3.023440    -2.136098
 C     1.204330     4.101291    -0.459344
 H     1.508585     4.385773     0.563402
 H     0.305121     3.477315    -0.339043
 C     0.858275     5.340944    -1.266433
 H     1.731908     6.001377    -1.388774
 H     0.507308     5.071342    -2.276028
 H     0.061702     5.928109    -0.785158
 C     3.068496    -2.013525    -0.021563
 H     2.441938    -1.894938     0.879851
 H     2.772654    -2.960019    -0.501695
 C     4.535166    -2.040811     0.345717
 H     4.715846    -2.954277     0.939152
 H     5.124511    -2.153961    -0.580944
 C     5.014612    -0.819036     1.116574
 H     4.426939    -0.722277     2.045511
 H     4.791621     0.084042     0.525818
 C     6.496799    -0.863976     1.448313
 H     6.744216    -1.744346     2.063359
 H     7.109404    -0.920957     0.534143
 H     6.814382     0.030046     2.006122
 H    -2.309682     2.079924     1.310122
 H    -0.862458     2.031623     0.289705
 C    -2.704099     1.653885    -0.805283
 H    -3.676175     1.164713    -0.627329
 H    -2.221007     1.063919    -1.601459
 C    -2.919731     3.083935    -1.273458
 H    -3.423998     3.688592    -0.502310
 H    -1.960927     3.577418    -1.501382
 H    -3.537948     3.120428    -2.183221
 C    -3.601649    -0.202462     2.529046
 H    -3.886208    -1.035534     3.193586
 H    -2.966891     0.480759     3.118780
 C    -4.845926     0.502359     2.023516
 H    -5.408346     0.867883     2.901239
 H    -4.555003     1.403002     1.455994
 C    -5.737090    -0.378031     1.158779
 H    -6.078240    -1.243147     1.754418
 H    -5.130596    -0.801969     0.341811
 C    -6.933973     0.364309     0.588593
 H    -7.570717     0.780546     1.386270
 H    -6.613266     1.206043    -0.047044
 H    -7.562257    -0.294889    -0.029072
 C     0.253941    -0.742101     2.869149
 H    -0.164175    -1.053889     3.842545
 H     0.305378    -1.638729     2.222559
 C     1.629291    -0.135122     3.038127
 H     2.299989    -0.906521     3.456927
 H     2.011376     0.116108     2.035622
 C     1.653625     1.111111     3.910064
 H     1.279915     0.860867     4.919011
 H     0.939226     1.839351     3.492920
 C     3.035949     1.734769     4.012037
 H     3.766173     1.030141     4.442536
 H     3.414378     2.027037     3.018825
 H     3.031845     2.636144     4.643458
