  66
scf done:    -2065.929982
 C     1.366882    -3.557818    -0.131905
 H     0.945705    -4.543799    -0.380177
 H     2.119086    -3.326264    -0.899614
 C     2.003360    -3.597959     1.249958
 H     2.737887    -4.420647     1.341898
 H     2.545140    -2.665916     1.482255
 H     1.258972    -3.754096     2.049754
Rh    -0.102170    -2.040558    -0.015675
 C     1.841694     0.896045     0.777954
 O     3.018637    -1.072060    -0.732135
 O     1.184482     0.448901    -1.717857
 C    -2.012473     0.891679    -0.815546
 O    -3.208717    -0.915881     0.657938
 O    -1.323346     0.532027     1.702747
 P    -1.657857    -0.429698     0.398960
 P     1.527842    -0.483833    -0.400823
 C    -1.304591    -3.327021    -0.615882
 O    -2.014774    -4.068575    -1.132148
 H     0.878897     1.425943     0.847530
 H     1.993496     0.401887     1.748499
 C     2.968967     1.819226     0.434687
 C     2.743459     2.887332    -0.441029
 H     1.737443     3.038061    -0.839339
 C     4.263889     1.604431     0.949567
 C     4.552492     0.463214     1.882721
 H     4.281657    -0.504205     1.430858
 H     3.982298     0.552212     2.822375
 H     5.618311     0.430100     2.146564
 C     3.777255     3.737565    -0.821672
 H     3.580571     4.563985    -1.508597
 C     5.289949     2.471963     0.560264
 H     6.295852     2.310588     0.957857
 C     5.059184     3.527474    -0.318761
 H     5.880896     4.187410    -0.606857
 C     3.972636    -0.472491    -1.589341
 H     3.624090     0.492811    -1.983132
 H     4.906803    -0.307744    -1.033954
 H     4.170290    -1.159703    -2.427154
 C     0.699870    -0.167089    -2.896977
 H     1.530061    -0.578951    -3.494086
 H    -0.002326    -0.982385    -2.649869
 H     0.186049     0.604758    -3.486176
 H    -1.029658     1.348320    -1.010424
 H    -2.294578     0.360876    -1.736845
 C    -3.025826     1.920589    -0.408784
 C    -2.614076     3.010199     0.366124
 H    -1.563006     3.084399     0.655026
 C    -4.379883     1.808928    -0.783541
 C    -4.869076     0.665025    -1.623742
 H    -4.651382    -0.297869    -1.139058
 H    -4.384337     0.653319    -2.614541
 H    -5.952975     0.734256    -1.789180
 C    -3.515427     3.986089     0.779524
 H    -3.170866     4.827832     1.384796
 C    -5.272008     2.800742    -0.361661
 H    -6.323017     2.720156    -0.652873
 C    -4.854637     3.879536     0.413647
 H    -5.576159     4.637451     0.728251
 C    -3.501089    -1.951616     1.566850
 H    -2.676519    -2.683817     1.626623
 H    -3.693825    -1.541397     2.571810
 H    -4.405722    -2.468598     1.217259
 C    -0.762045    -0.038997     2.862338
 H    -1.549383    -0.362031     3.563075
 H    -0.127189    -0.911223     2.615495
 H    -0.145960     0.724802     3.358161
