  72
scf done:    -1696.234675
 C     1.808838    -2.606907    -0.304415
 H     2.120430    -3.019988    -1.278868
 H     2.728007    -2.205398     0.149175
 C     1.266133    -3.723852     0.579564
 H     0.407790    -4.237191     0.116609
 H     2.028702    -4.497859     0.792930
 H     0.918644    -3.346668     1.556651
Rh     0.297083    -1.128871    -0.484655
 C     1.702791     0.845848     2.154693
 C     3.551488     0.230119     0.051178
 C     1.480633     2.167503    -0.415296
 C    -1.982222     1.286554    -1.746048
 C    -3.119081    -0.944986    -0.307248
 C    -1.838908     1.167804     1.207082
 P    -1.631919     0.148404    -0.332650
 P     1.750007     0.500266     0.337066
 C    -0.439075    -2.230929    -1.766293
 O    -0.830375    -2.830094    -2.671462
 H     2.611470     1.391111     2.462327
 H     0.850853     1.523476     2.332669
 C     1.529587    -0.430373     2.970822
 H     2.372787    -1.114315     2.773744
 H     0.635935    -0.964991     2.602552
 C     1.411586    -0.171946     4.463955
 H     2.308913     0.331687     4.858121
 H     0.547067     0.474215     4.688556
 H     1.281910    -1.109472     5.025483
 H     4.115070     1.077365     0.476655
 H     3.833928    -0.658014     0.639298
 C     3.891783     0.015588    -1.417414
 H     3.693808     0.945214    -1.979376
 H     3.201343    -0.738655    -1.830564
 C     5.333587    -0.414781    -1.634269
 H     6.043132     0.330156    -1.238664
 H     5.538856    -1.370869    -1.126937
 H     5.555395    -0.552045    -2.703479
 H     1.456147     2.004555    -1.505998
 H     0.453266     2.455467    -0.138786
 C     2.449858     3.285868    -0.057191
 H     3.465965     3.018826    -0.391058
 H     2.509041     3.393140     1.039323
 C     2.050550     4.616913    -0.677211
 H     2.010736     4.547486    -1.776039
 H     1.053816     4.935655    -0.331790
 H     2.763656     5.414406    -0.418803
 H    -1.076923     1.904585    -1.863358
 H    -1.983069     0.616780    -2.624262
 C    -3.225947     2.165757    -1.743245
 H    -3.166517     2.886934    -0.911281
 H    -4.122712     1.552665    -1.552671
 C    -3.398888     2.923719    -3.051633
 H    -2.528456     3.567474    -3.256460
 H    -3.501689     2.230892    -3.901853
 H    -4.292678     3.565827    -3.032859
 H    -4.041836    -0.352036    -0.193262
 H    -3.158987    -1.410948    -1.306851
 C    -3.030181    -2.027405     0.762547
 H    -3.003121    -1.560418     1.762865
 H    -2.063409    -2.548674     0.651268
 C    -4.176549    -3.023456     0.694223
 H    -5.152380    -2.526914     0.820906
 H    -4.191980    -3.540339    -0.278492
 H    -4.088461    -3.791417     1.477629
 H    -1.291315     0.615797     1.989303
 H    -1.261641     2.094475     1.042918
 C    -3.235398     1.505822     1.716942
 H    -3.782801     0.574342     1.933476
 H    -3.816556     2.021084     0.937084
 C    -3.189876     2.364836     2.972208
 H    -2.636072     1.859709     3.780098
 H    -2.687096     3.326667     2.780986
 H    -4.200275     2.585978     3.348336
