 108
scf done:    -2467.451131
 C     1.507380    -3.025469     0.601370
 H     1.632810    -3.919671    -0.030347
 H     2.526331    -2.625204     0.730712
 C     0.949143    -3.428961     1.959495
 H    -0.030736    -3.924244     1.868697
 H     1.618540    -4.130094     2.494052
 H     0.803358    -2.562463     2.628167
Rh     0.112681    -1.624215    -0.167788
 C     2.496814     0.114861     1.708029
 C     3.413310    -0.791068    -0.933415
 C     1.841980     1.645413    -0.688686
 C    -2.260032     0.835461    -1.580307
 C    -3.319237    -1.614345    -0.318450
 C    -2.080063     0.536596     1.389189
 P    -1.902340    -0.400777    -0.213412
 P     1.902702    -0.103567    -0.057459
 C    -0.595568    -3.063700    -1.053823
 O    -0.923417    -3.932402    -1.741954
 H     2.401610    -0.886713     2.152486
 H     1.738911     0.745433     2.196979
 C     3.873952     0.655148     1.920900
 C     4.126368     2.033940     1.923878
 H     3.292264     2.734174     1.831011
 C     4.959204    -0.217347     2.078290
 H     4.777808    -1.295479     2.103137
 C     5.425676     2.523109     2.037969
 H     5.600959     3.601721     2.032125
 C     6.259310     0.268717     2.191485
 H     7.091376    -0.430383     2.305274
 C     6.499430     1.641959     2.161213
 H     7.518964     2.024916     2.245845
 H     3.826485    -1.482795    -0.177973
 C     4.532861     0.194369    -1.284835
 H     4.811842     0.813751    -0.422075
 H     4.189377     0.885461    -2.073080
 C     5.759444    -0.557419    -1.796376
 H     6.554845     0.160167    -2.056285
 H     6.161730    -1.180834    -0.977310
 C     5.422821    -1.440886    -2.992038
 H     6.312219    -2.005204    -3.317190
 H     5.135194    -0.797916    -3.844086
 C     4.272326    -2.389737    -2.674583
 H     4.598697    -3.116579    -1.908543
 H     4.001702    -2.980372    -3.564884
 C     3.049698    -1.642827    -2.152972
 H     2.647219    -0.994933    -2.951441
 H     2.239121    -2.338055    -1.889965
 H     2.852860     2.065295    -0.541497
 C     0.847565     2.511353     0.079037
 H     1.081144     2.525072     1.155367
 H    -0.147355     2.048737    -0.008741
 C     0.794658     3.937219    -0.459944
 H     0.048554     4.525400     0.100075
 H     1.769451     4.426421    -0.281775
 C     0.482303     3.960200    -1.951308
 H     0.496824     4.994597    -2.330659
 H    -0.545988     3.590296    -2.112819
 C     1.462607     3.092657    -2.730471
 H     2.470979     3.541073    -2.670279
 H     1.195563     3.074333    -3.799456
 C     1.524479     1.669060    -2.186584
 H     0.566594     1.148738    -2.358687
 H     2.273062     1.091685    -2.746700
 H    -2.500678     0.204042    -2.450546
 H    -1.270581     1.261642    -1.794594
 C    -3.254539     1.952922    -1.441084
 C    -2.982320     3.064257    -0.629283
 H    -2.039473     3.114975    -0.081921
 C    -4.455857     1.955165    -2.161553
 H    -4.674651     1.127359    -2.841134
 C    -3.893217     4.109632    -0.504006
 H    -3.654953     4.958306     0.141809
 C    -5.371470     2.998425    -2.040668
 H    -6.301873     2.969470    -2.612971
 C    -5.099349     4.077458    -1.202130
 H    -5.816429     4.895653    -1.104234
 H    -3.036092    -2.179975    -1.226607
 C    -4.743603    -1.108155    -0.544756
 H    -4.781104    -0.416033    -1.394733
 H    -5.093437    -0.538859     0.329947
 C    -5.691948    -2.279607    -0.796497
 H    -6.718422    -1.905005    -0.942174
 H    -5.405169    -2.776884    -1.740913
 C    -5.651537    -3.298596     0.336365
 H    -6.311614    -4.151646     0.109724
 H    -6.051145    -2.832331     1.255595
 C    -4.228290    -3.777642     0.598818
 H    -3.861926    -4.349307    -0.272515
 H    -4.205391    -4.469286     1.456571
 C    -3.285551    -2.606018     0.848918
 H    -3.592723    -2.088043     1.774061
 H    -2.256057    -2.962465     1.012637
 H    -1.550423     1.479828     1.170419
 C    -1.286402    -0.143554     2.509409
 H    -0.285342    -0.421536     2.138137
 H    -1.775324    -1.090780     2.791767
 C    -1.184150     0.765273     3.728838
 H    -0.629743     0.258229     4.535178
 H    -0.593134     1.660933     3.460159
 C    -2.561819     1.200164     4.218305
 H    -2.467629     1.898347     5.065910
 H    -3.099725     0.315267     4.604088
 C    -3.383141     1.828648     3.097390
 H    -2.916925     2.782214     2.788006
 H    -4.393314     2.083113     3.457221
 C    -3.478613     0.909404     1.882100
 H    -4.020046    -0.007563     2.168563
 H    -4.065449     1.391571     1.088192
