 100
scf done:    -2910.762958
 C    -0.891379    -3.362271    -1.262693
 H    -0.977362    -4.376496    -0.841407
 H    -1.923578    -3.049035    -1.496688
 C    -0.052511    -3.386280    -2.532513
 H     0.955375    -3.792549    -2.351718
 H    -0.515889    -4.003705    -3.326184
 H     0.083615    -2.377500    -2.962576
Rh     0.176676    -1.989007    -0.071372
 C    -1.919790    -0.018277    -1.956544
 C    -3.242554    -1.390839     0.352498
 C    -1.714151     0.847842     0.899494
 C     2.228413     0.151440     2.096183
 C     3.423768    -0.822296    -0.363050
 C     1.450722     1.177944    -0.559180
 P     1.794899    -0.373279     0.352322
 P    -1.676532    -0.611569    -0.205425
 C     0.964239    -3.403056     0.818194
 O     1.285153    -4.250983     1.534802
 H    -1.803927    -0.955651    -2.524386
 H    -1.008201     0.569549    -2.146022
 C    -3.130793     0.720565    -2.438819
 C    -3.044074     2.074527    -2.793736
 H    -2.079255     2.585328    -2.725889
 C    -4.360828     0.069721    -2.600228
 H    -4.440124    -0.992735    -2.358988
 C    -4.162373     2.767532    -3.253128
 H    -4.071233     3.821671    -3.527322
 C    -5.479882     0.761356    -3.057802
 H    -6.431071     0.235118    -3.169366
 C    -5.388476     2.115703    -3.377055
 H    -6.266611     2.657082    -3.736868
 C    -4.436205    -0.652931     0.440567
 H    -4.458928     0.394201     0.133329
 C    -3.244756    -2.704931     0.822465
 H    -2.309194    -3.268781     0.804827
 C    -5.596409    -1.228558     0.929618
 H    -6.527585    -0.662671     0.994832
 C    -4.403596    -3.295111     1.326690
 H    -4.361575    -4.323722     1.685309
 C    -5.592819    -2.560639     1.371575
 O    -6.765270    -3.036973     1.831662
 C    -6.819635    -4.354002     2.304111
 H    -6.148878    -4.508694     3.167536
 H    -7.854633    -4.531776     2.622649
 H    -6.557663    -5.083611     1.517680
 C    -1.227886     0.643401     2.201487
 H    -0.830490    -0.341781     2.466471
 C    -2.237325     2.099478     0.581336
 H    -2.639707     2.290853    -0.413248
 C    -1.233601     1.663906     3.138242
 H    -0.854484     1.512024     4.150806
 C    -2.250402     3.138746     1.514130
 H    -2.664571     4.104891     1.224002
 C    -1.739422     2.929103     2.798848
 O    -1.699503     3.865181     3.766406
 C    -2.199250     5.142807     3.490463
 H    -3.271878     5.117426     3.229214
 H    -2.070635     5.736168     4.404466
 H    -1.646503     5.631423     2.667933
 H     2.184626    -0.791776     2.661475
 H     1.387897     0.766813     2.447708
 C     3.546724     0.829662     2.289795
 C     3.674710     2.223050     2.228060
 H     2.786303     2.841356     2.085655
 C     4.704220     0.065021     2.487832
 H     4.622831    -1.024231     2.530908
 C     4.923479     2.831221     2.340915
 H     5.001390     3.919968     2.287530
 C     5.951925     0.669833     2.604486
 H     6.841226     0.052306     2.750956
 C     6.067964     2.056985     2.524656
 H     7.047163     2.533843     2.611086
 C     4.381910     0.165566    -0.658905
 H     4.149525     1.218573    -0.486534
 C     3.760640    -2.154733    -0.602200
 H     3.023954    -2.934831    -0.402671
 C     5.624916    -0.173249    -1.162076
 H     6.372408     0.589488    -1.386999
 C     5.012680    -2.512479    -1.104132
 H     5.233071    -3.565884    -1.277395
 C     5.955507    -1.519003    -1.385206
 O     7.188058    -1.755309    -1.871824
 C     7.574002    -3.078405    -2.119594
 H     6.928126    -3.559998    -2.874743
 H     8.601176    -3.040090    -2.503824
 H     7.559225    -3.689519    -1.199947
 C     1.554009     1.144208    -1.963328
 H     1.956118     0.252764    -2.452504
 C     0.933928     2.331271     0.027835
 H     0.802674     2.392740     1.109400
 C     1.139353     2.212109    -2.740855
 H     1.205395     2.182183    -3.829982
 C     0.520265     3.419879    -0.742628
 H     0.104155     4.291762    -0.238669
 C     0.603605     3.358762    -2.134270
 O     0.174662     4.329995    -2.967502
 C    -0.401960     5.479938    -2.415916
 H     0.308291     6.027916    -1.771949
 H    -0.688071     6.124045    -3.256979
 H    -1.304615     5.241204    -1.824733
