  80
scf done:    -2000.835354
 C    -1.488899     2.905910     0.060146
 H    -1.325184     3.773974    -0.597295
 H    -2.524497     2.583119    -0.134147
 C    -1.349820     3.321633     1.517972
 H    -0.364094     3.766856     1.726521
 H    -2.111078     4.068295     1.816428
 H    -1.466195     2.468313     2.211507
Rh    -0.021988     1.390214    -0.115319
 C    -2.891611    -0.199525     1.073933
 C    -2.983588     0.587552    -1.767073
 C    -1.646605    -1.868252    -0.999339
 C     2.495401    -1.056297    -0.784348
 C     3.235076     1.129874     1.092987
 C     1.331610    -1.030479     1.992850
 P     1.784795     0.069424     0.547078
 P    -1.808495    -0.085061    -0.450884
 C     1.054343     2.613146    -0.965648
 O     1.669526     3.275738    -1.686379
 H    -2.895669     0.827821     1.467648
 H    -2.313915    -0.800949     1.793483
 C    -4.290478    -0.707377     0.927868
 C    -4.577240    -2.079343     0.917004
 H    -3.770641    -2.800004     1.072080
 C    -5.351814     0.191854     0.758524
 H    -5.149907     1.266332     0.785884
 C    -5.876207    -2.537372     0.708367
 H    -6.076848    -3.611547     0.699614
 C    -6.651337    -0.263014     0.549527
 H    -7.462341     0.456766     0.414542
 C    -6.918088    -1.631057     0.514770
 H    -7.936274    -1.989951     0.348065
 H    -3.559238     1.331420    -1.191877
 C    -2.238177     1.341191    -2.864780
 H    -2.957395     1.882579    -3.500317
 H    -1.524704     2.060036    -2.440639
 H    -1.672053     0.658490    -3.516432
 C    -3.986411    -0.397008    -2.363416
 H    -4.556505    -0.951440    -1.607074
 H    -4.713414     0.161142    -2.975248
 H    -3.501778    -1.123838    -3.032444
 H    -2.683967    -2.196997    -1.174343
 C    -0.879108    -1.940487    -2.315976
 H    -0.744899    -2.989908    -2.624797
 H    -1.395232    -1.418604    -3.132004
 H     0.116620    -1.484778    -2.213912
 C    -1.031413    -2.814720     0.021966
 H    -1.464406    -2.715269     1.028074
 H    -1.186327    -3.857180    -0.299815
 H     0.053069    -2.664463     0.107258
 H     2.129516    -0.583593    -1.707117
 H     1.954666    -2.009856    -0.692343
 C     3.972249    -1.281029    -0.897892
 C     4.590708    -2.432606    -0.395348
 H     3.983401    -3.208448     0.076133
 C     4.775904    -0.321532    -1.529719
 H     4.308684     0.567268    -1.963479
 C     5.970823    -2.601934    -0.482797
 H     6.431384    -3.507836    -0.081128
 C     6.156068    -0.484726    -1.613670
 H     6.762576     0.280375    -2.104305
 C     6.761499    -1.622705    -1.081972
 H     7.844252    -1.752200    -1.146759
 H     3.623347     1.467951     0.115409
 C     2.798809     2.378957     1.858525
 H     3.638955     3.089811     1.908890
 H     1.949337     2.882169     1.377670
 H     2.508651     2.142014     2.891835
 C     4.367280     0.431790     1.840978
 H     4.735314    -0.469134     1.335583
 H     5.218274     1.124783     1.940931
 H     4.057817     0.157190     2.860683
 H     0.377350    -1.444978     1.638727
 C     2.243617    -2.202878     2.325761
 H     1.814396    -2.779456     3.161984
 H     2.344100    -2.895091     1.477846
 H     3.252568    -1.888034     2.622885
 C     0.995916    -0.180073     3.214639
 H     0.352151     0.673344     2.946911
 H     0.459291    -0.788770     3.960046
 H     1.898556     0.214331     3.703288
