  90
scf done:    -2928.311688
 C    -1.416950    -2.491323    -2.454078
 H    -1.212491    -3.572690    -2.491423
 H    -2.441673    -2.413039    -2.054909
 C    -1.325387    -1.905736    -3.855882
 H    -0.333546    -2.083938    -4.301144
 H    -2.070957    -2.344213    -4.546594
 H    -1.486368    -0.813267    -3.870728
Rh     0.002887    -1.402072    -1.319802
 C    -3.174353     0.265972    -1.741008
 C    -2.659833    -1.132830     0.781902
 C    -1.557446     1.464317     0.314209
 C     1.576908    -0.337058     1.567700
 C     3.416294    -0.520199    -0.781284
 C     1.698409     1.643791    -0.641059
 P     1.677206    -0.158237    -0.297942
 P    -1.812920    -0.155180    -0.518617
 C     0.917358    -2.994927    -1.260459
 O     1.361831    -4.044870    -1.084228
 H    -2.770641     1.095222    -2.340689
 H    -3.229753    -0.599583    -2.411779
 C    -4.512819     0.612744    -1.167474
 C    -4.777346     1.925655    -0.755706
 H    -4.016159     2.693800    -0.905085
 C    -5.505020    -0.375975    -0.989482
 C    -5.290447    -1.795544    -1.424815
 H    -4.463181    -2.267601    -0.871539
 H    -5.040462    -1.863099    -2.495544
 H    -6.192745    -2.397705    -1.253638
 C    -5.980270     2.267397    -0.145044
 H    -6.157491     3.297495     0.172664
 C    -6.711114    -0.012589    -0.380438
 H    -7.478294    -0.778618    -0.238672
 C    -6.952051     1.288986     0.050787
 H    -7.902166     1.539901     0.528336
 C    -3.707621    -0.605128     1.553768
 H    -4.022267     0.431991     1.425600
 C    -2.270501    -2.462500     0.989148
 H    -1.444932    -2.859791     0.390583
 C    -4.361305    -1.392802     2.495149
 H    -5.182240    -0.997749     3.095820
 C    -2.916532    -3.260378     1.929131
 H    -2.623215    -4.298009     2.097497
 C    -3.960091    -2.713580     2.665617
 F    -4.586882    -3.467957     3.563695
 C    -1.389685     1.560520     1.700545
 H    -1.497431     0.670945     2.324452
 C    -1.412179     2.629878    -0.452058
 H    -1.505505     2.590892    -1.539001
 C    -1.088936     2.778584     2.308849
 H    -0.954657     2.858735     3.389198
 C    -1.135103     3.855824     0.139668
 H    -1.019646     4.764369    -0.453156
 C    -0.966591     3.911979     1.517962
 F    -0.663808     5.076853     2.086586
 H     0.916723     0.484310     1.881420
 H     0.993476    -1.262570     1.682461
 C     2.816323    -0.381152     2.406934
 C     3.194304     0.732783     3.166221
 H     2.544713     1.612594     3.180484
 C     3.611530    -1.546590     2.456107
 C     3.212738    -2.792649     1.724993
 H     3.228850    -2.648525     0.634391
 H     2.190856    -3.110351     1.986840
 H     3.892773    -3.622647     1.958355
 C     4.367163     0.740449     3.916118
 H     4.641328     1.625420     4.494970
 C     4.786000    -1.523224     3.215282
 H     5.407886    -2.421890     3.246498
 C     5.176788    -0.392317     3.927843
 H     6.103211    -0.404042     4.506753
 C     4.500768     0.113158    -0.155100
 H     4.334813     0.827376     0.652587
 C     3.671254    -1.392386    -1.845290
 H     2.832275    -1.864742    -2.360718
 C     5.806501    -0.154361    -0.548701
 H     6.658052     0.321635    -0.059756
 C     4.973991    -1.661478    -2.258041
 H     5.183044    -2.341878    -3.085240
 C     6.026088    -1.045491    -1.593889
 F     7.275026    -1.302887    -1.972884
 C     1.409335     2.019989    -1.960396
 H     1.125546     1.249827    -2.685211
 C     2.050436     2.633844     0.279061
 H     2.286003     2.369646     1.309519
 C     1.471729     3.351547    -2.356050
 H     1.249784     3.658436    -3.379792
 C     2.107475     3.973646    -0.098799
 H     2.361123     4.759045     0.615300
 C     1.817414     4.313408    -1.413053
 F     1.851574     5.594239    -1.776191
