 100
scf done:    -2462.625487
 C    -1.383895     0.295130    -3.353549
 H    -1.939063    -0.501640    -3.877462
 H    -2.146415     1.008892    -3.008866
 C    -0.463766     1.024844    -4.324780
 H     0.250415     0.345355    -4.816005
 H    -1.029903     1.537427    -5.125748
 H     0.138405     1.798766    -3.818049
Rh    -0.251426    -0.447950    -1.717658
 C    -2.246041     1.983004     0.096817
 C    -3.656550    -0.227249    -1.215909
 C    -2.443319    -0.580093     1.302610
 C     1.952279    -2.312706     0.587391
 C     3.102581    -0.529254    -1.388352
 C     1.887658     0.454930     1.059697
 P     1.583012    -0.746086    -0.302115
 P    -2.048149     0.197452    -0.345984
 C     0.454331    -1.605058    -2.958128
 O     0.765922    -2.441412    -3.690248
 H    -3.115638     2.085667     0.768845
 H    -1.348442     2.231608     0.687712
 C    -2.357820     2.951135    -1.071750
 H    -3.238256     2.701767    -1.688362
 H    -1.487729     2.825805    -1.734703
 C    -2.458232     4.396290    -0.609293
 H    -3.346216     4.551806     0.024714
 H    -1.573397     4.682406    -0.019461
 H    -2.532477     5.087482    -1.462732
 H    -3.746099     0.495979    -2.037461
 H    -3.460573    -1.196118    -1.693526
 C    -4.902605    -0.240175    -0.386664
 C    -5.517490     0.970715    -0.040134
 H    -5.104224     1.904087    -0.430636
 C    -5.471368    -1.448856     0.071341
 C    -4.914091    -2.786273    -0.329605
 H    -3.857792    -2.912500    -0.045210
 H    -4.961784    -2.929812    -1.421241
 H    -5.482416    -3.602124     0.137566
 C    -6.645513     1.010559     0.774505
 H    -7.102537     1.969731     1.028947
 C    -6.604756    -1.391149     0.889731
 H    -7.044097    -2.327107     1.245943
 C    -7.187578    -0.179389     1.252157
 H    -8.071095    -0.167742     1.894589
 H    -3.353966    -0.069651     1.653653
 H    -2.744789    -1.606097     1.064606
 C    -1.414465    -0.579532     2.388442
 C    -1.141361     0.595201     3.101319
 H    -1.664083     1.515131     2.831512
 C    -0.773643    -1.776501     2.770669
 C    -1.088930    -3.076601     2.086298
 H    -0.954703    -3.009159     0.995372
 H    -2.133578    -3.378756     2.268557
 H    -0.444852    -3.884869     2.458684
 C    -0.235609     0.609930     4.157885
 H    -0.048374     1.539035     4.700885
 C     0.142339    -1.743484     3.829106
 H     0.642861    -2.670319     4.122796
 C     0.418963    -0.565796     4.518988
 H     1.135159    -0.570687     5.343912
 H     2.974014    -2.255642     0.998187
 H     1.274996    -2.330672     1.451915
 C     1.767133    -3.558278    -0.267586
 H     2.377103    -3.483941    -1.184426
 H     0.724480    -3.598733    -0.624078
 C     2.125824    -4.836896     0.472712
 H     3.179909    -4.830022     0.794252
 H     1.509674    -4.961179     1.377505
 H     1.974205    -5.724999    -0.159094
 H     3.020948    -1.336354    -2.132825
 H     2.930754     0.405271    -1.940536
 C     4.446753    -0.561134    -0.722723
 C     5.003396    -1.800099    -0.371550
 H     4.471230    -2.713610    -0.647414
 C     5.183887     0.612956    -0.448063
 C     4.734157     1.966730    -0.917177
 H     3.779785     2.275556    -0.470484
 H     4.593198     1.981862    -2.010025
 H     5.482457     2.731491    -0.668709
 C     6.219903    -1.898641     0.296790
 H     6.622759    -2.880337     0.556824
 C     6.403313     0.496121     0.231274
 H     6.970639     1.406309     0.445033
 C     6.917698    -0.738025     0.618346
 H     7.872469    -0.792271     1.146761
 H     1.204280     0.161048     1.874133
 H     2.907825     0.270902     1.438165
 C     1.714012     1.916924     0.746526
 C     1.171846     2.365996    -0.462597
 H     0.829311     1.628891    -1.205511
 C     2.158374     2.870186     1.689767
 C     2.802113     2.435322     2.972715
 H     3.764556     1.931340     2.779999
 H     2.175007     1.716484     3.520668
 H     2.999840     3.293930     3.629136
 C     1.070982     3.724150    -0.755305
 H     0.659905     4.043058    -1.715911
 C     2.033412     4.229827     1.389576
 H     2.378556     4.964981     2.121970
 C     1.500090     4.663373     0.177221
 H     1.427526     5.732011    -0.038583
