 100
scf done:    -2162.832872
 C     1.254818    -3.016109     0.170655
 H     1.601295    -3.579835    -0.712056
 H     2.164383    -2.757173     0.730353
 C     0.380201    -3.910269     1.041802
 H    -0.479908    -4.318109     0.486520
 H     0.941646    -4.774244     1.446757
 H    -0.031258    -3.368017     1.910929
Rh     0.117106    -1.290170    -0.301261
 C     1.694277     0.832540     2.134420
 C     3.547226    -0.637328     0.510930
 C     2.169889     1.611895    -0.669613
 C    -1.928075     1.209515    -1.945676
 C    -3.242009    -0.834745    -0.397907
 C    -1.862778     1.500681     0.931171
 P    -1.689453     0.206474    -0.407988
 P     1.845822     0.129525     0.428547
 C    -0.632581    -2.391180    -1.568290
 O    -0.975166    -3.039134    -2.461052
 H     2.504213     1.550517     2.346104
 H     0.753331     1.403101     2.158741
 C     1.651205    -0.269988     3.187661
 H     2.604967    -0.823772     3.183764
 H     0.882352    -1.008302     2.898303
 C     1.379205     0.249555     4.590479
 H     2.148105     0.973461     4.905101
 H     0.404463     0.757846     4.647869
 H     1.371812    -0.569010     5.326076
 H     3.399666    -1.502291     1.180751
 C     4.657004     0.216076     1.125086
 H     4.366249     0.588877     2.119427
 H     4.840702     1.107234     0.498223
 C     5.953174    -0.585015     1.245455
 H     6.752189     0.052735     1.657981
 H     5.800076    -1.400606     1.975231
 C     6.383045    -1.183389    -0.089026
 H     7.292349    -1.792598     0.040569
 H     6.654063    -0.365291    -0.781405
 C     5.264935    -2.011458    -0.712323
 H     5.063786    -2.896832    -0.082837
 H     5.573002    -2.395365    -1.698324
 C     3.984327    -1.195213    -0.844197
 H     4.172086    -0.356452    -1.537797
 H     3.170910    -1.794822    -1.281002
 H     3.252968     1.810559    -0.574608
 C     1.443457     2.893917    -0.261782
 H     1.671852     3.162256     0.780930
 H     0.354680     2.727981    -0.313089
 C     1.803045     4.054297    -1.185671
 H     1.257262     4.961377    -0.878101
 H     2.877836     4.285537    -1.072998
 C     1.510419     3.721900    -2.643649
 H     1.810020     4.557268    -3.297034
 H     0.419281     3.603836    -2.775676
 C     2.207760     2.434168    -3.064857
 H     3.301189     2.596685    -3.062119
 H     1.937866     2.170869    -4.100668
 C     1.868231     1.276170    -2.132790
 H     0.800379     1.020319    -2.211265
 H     2.402064     0.366845    -2.442056
 H    -2.926215     1.677102    -1.942140
 H    -1.200522     2.036568    -1.885317
 C    -1.712748     0.430250    -3.236693
 H    -2.465444    -0.371413    -3.319052
 H    -0.740237    -0.086222    -3.190664
 C    -1.773662     1.317982    -4.469670
 H    -2.744226     1.833714    -4.550010
 H    -0.990389     2.093016    -4.439022
 H    -1.628008     0.734720    -5.391352
 H    -3.149340    -1.332126    -1.382975
 C    -4.594381    -0.123257    -0.377033
 H    -4.633845     0.684348    -1.125079
 H    -4.745242     0.350802     0.608236
 C    -5.728823    -1.116235    -0.625675
 H    -6.700472    -0.596712    -0.589333
 H    -5.630697    -1.521653    -1.648913
 C    -5.700527    -2.265556     0.375925
 H    -6.498434    -2.991153     0.148671
 H    -5.920280    -1.869070     1.384247
 C    -4.339467    -2.953069     0.398127
 H    -4.164008    -3.456098    -0.569949
 H    -4.319756    -3.743373     1.165937
 C    -3.214359    -1.954707     0.646853
 H    -3.329475    -1.526760     1.656373
 H    -2.232554    -2.453982     0.629269
 H    -0.848925     1.936842     0.947900
 C    -2.085493     0.871388     2.307429
 H    -1.365801     0.051225     2.468925
 H    -3.088765     0.415047     2.342441
 C    -1.985093     1.912971     3.417425
 H    -2.173264     1.441660     4.395773
 H    -0.953524     2.306962     3.456492
 C    -2.948542     3.069893     3.183072
 H    -2.841561     3.827754     3.975923
 H    -3.986889     2.696846     3.247572
 C    -2.725964     3.696677     1.812182
 H    -1.721792     4.158234     1.783402
 H    -3.446292     4.512490     1.637989
 C    -2.830248     2.662679     0.693093
 H    -3.865332     2.289590     0.640088
 H    -2.623396     3.147606    -0.272720
