 104
scf done:    -2763.273892
 C     2.028905    -2.235716    -1.994982
 H     2.352362    -2.113491    -3.042791
 H     2.920920    -2.005842    -1.390393
 C     1.603856    -3.678287    -1.755311
 H     0.789285    -3.987405    -2.429666
 H     2.439681    -4.388325    -1.905769
 H     1.237729    -3.840048    -0.726784
Rh     0.414371    -0.955835    -1.493533
 C     2.207216    -0.558428     1.598824
 C     3.494418     0.564236    -0.759936
 C     1.300823     1.883062     0.409226
 C    -2.021159     1.590995    -0.242727
 C    -3.106190    -0.882771    -1.114937
 C    -1.391257    -0.859605     1.189904
 P    -1.533901    -0.170340    -0.499845
 P     1.851146     0.192567    -0.042393
 C    -0.284054    -1.451485    -3.123563
 O    -0.627668    -1.659498    -4.204856
 H     2.894304     0.086260     2.172533
 H     1.242746    -0.550340     2.131441
 C     2.719610    -1.988108     1.527787
 H     2.017765    -2.583930     0.922478
 H     3.685524    -2.023525     0.995267
 C     2.856963    -2.617064     2.906943
 H     1.912626    -2.476187     3.460672
 H     3.629639    -2.079773     3.487457
 C     3.182738    -4.102989     2.874654
 H     2.431556    -4.617304     2.249178
 H     4.149961    -4.259504     2.365478
 C     3.210561    -4.733250     4.257804
 H     3.436156    -5.809588     4.213394
 H     2.236920    -4.614008     4.760766
 H     3.972698    -4.260039     4.898274
 C     4.596431     0.936420     0.024522
 H     4.513447     0.968582     1.113641
 C     3.641081     0.556114    -2.147809
 H     2.786134     0.254535    -2.760864
 C     5.805208     1.275700    -0.561233
 H     6.670449     1.560680     0.040272
 C     4.847409     0.906565    -2.752567
 H     4.923386     0.884839    -3.839851
 C     5.941465     1.264917    -1.957818
 O     7.151238     1.609899    -2.438509
 C     7.350297     1.614652    -3.824457
 H     6.682182     2.331965    -4.333021
 H     8.391092     1.919525    -3.991951
 H     7.196107     0.613891    -4.264993
 C     1.115180     2.807361    -0.634232
 H     1.365065     2.515853    -1.658104
 C     0.970962     2.281181     1.704433
 H     1.105927     1.597955     2.544107
 C     0.594887     4.065976    -0.393062
 H     0.438011     4.782403    -1.201519
 C     0.429862     3.545123     1.961779
 H     0.169511     3.813216     2.986117
 C     0.225537     4.441041     0.908741
 O    -0.318260     5.666001     1.043203
 C    -0.733618     6.084856     2.312475
 H     0.108351     6.135152     3.025311
 H    -1.155732     7.090269     2.190226
 H    -1.512627     5.420996     2.727803
 H    -1.241915     2.028497     0.397482
 H    -1.890331     2.075818    -1.223546
 C    -3.407855     1.874385     0.317106
 H    -4.172100     1.621000    -0.436110
 H    -3.620026     1.216872     1.177946
 C    -3.554558     3.328782     0.745131
 H    -3.303503     3.989378    -0.104585
 H    -2.794954     3.552716     1.517179
 C    -4.935339     3.683185     1.276531
 H    -5.687800     3.479023     0.494655
 H    -5.186409     3.006798     2.112971
 C    -5.049343     5.128631     1.733651
 H    -6.058131     5.362117     2.106651
 H    -4.828575     5.826288     0.909701
 H    -4.336941     5.347573     2.546201
 C    -4.035593    -1.524909    -0.283686
 H    -3.813310    -1.659448     0.777442
 C    -3.427398    -0.725460    -2.465425
 H    -2.719014    -0.238356    -3.140035
 C    -5.237330    -1.998261    -0.789401
 H    -5.961721    -2.506528    -0.150073
 C    -4.636039    -1.184935    -2.985049
 H    -4.845135    -1.046269    -4.045895
 C    -5.550202    -1.831964    -2.145229
 O    -6.738068    -2.323472    -2.548951
 C    -7.096397    -2.199969    -3.896492
 H    -6.382569    -2.718219    -4.560844
 H    -8.083737    -2.666812    -4.003932
 H    -7.166574    -1.142781    -4.208589
 C    -1.063720    -2.226732     1.289915
 H    -1.017163    -2.831942     0.379286
 C    -1.423894    -0.106041     2.363025
 H    -1.664299     0.957798     2.327802
 C    -0.773435    -2.807101     2.511449
 H    -0.508554    -3.863168     2.590571
 C    -1.118966    -0.676799     3.603677
 H    -1.140458    -0.051018     4.496226
 C    -0.782934    -2.031139     3.681333
 O    -0.435183    -2.669020     4.817021
 C    -0.367605    -1.937125     6.009038
 H    -1.348863    -1.513856     6.286588
 H    -0.049034    -2.637743     6.790907
 H     0.368932    -1.116918     5.942423
