  96
scf done:    -2610.096279
 C    -2.150371     0.339813    -2.732061
 H    -1.951253     0.029861    -3.769642
 H    -3.119660    -0.101896    -2.462955
 C    -2.221080     1.855747    -2.660653
 H    -1.263043     2.333490    -2.928074
 H    -2.978269     2.259163    -3.359010
 H    -2.494527     2.218370    -1.656746
Rh    -0.591555    -0.225519    -1.433385
 C    -1.859754     1.192695     1.743489
 C    -3.864515     0.100764    -0.041639
 C    -2.054044    -1.635565     1.393982
 C     1.492202     0.166438     1.473199
 C     2.410002    -1.903566    -0.434729
 C     2.632355     0.981865    -1.063239
 P     1.519656    -0.300122    -0.340223
 P    -2.090168    -0.079310     0.390221
 C    -0.084179    -1.321338    -2.813401
 O     0.081711    -2.153256    -3.595151
 H    -1.017547     0.792869     2.329932
 H    -2.724565     1.181807     2.418922
 C    -1.569254     2.608895     1.326237
 C    -2.218999     3.673435     1.964807
 H    -2.962083     3.460300     2.738936
 C    -0.624406     2.912419     0.340511
 H    -0.132020     2.097174    -0.194615
 C    -1.928909     4.995149     1.632493
 H    -2.449870     5.808253     2.143803
 C    -0.324480     4.230996     0.009276
 H     0.423008     4.431845    -0.761963
 C    -0.976656     5.279780     0.654760
 H    -0.747123     6.315734     0.394858
 C    -4.513233     1.320873     0.185402
 H    -3.970611     2.151860     0.638289
 C    -4.563614    -0.952564    -0.674802
 C    -3.925831    -2.272552    -0.995869
 H    -3.873233    -2.924532    -0.109654
 H    -2.894000    -2.140503    -1.359548
 H    -4.501901    -2.799545    -1.768987
 C    -5.846575     1.507319    -0.167386
 H    -6.328817     2.469449     0.019677
 C    -5.906048    -0.743475    -1.013007
 H    -6.452784    -1.555660    -1.499992
 C    -6.550675     0.464141    -0.761170
 H    -7.598618     0.592691    -1.042450
 C    -1.049950    -2.548659     1.046388
 H    -0.408359    -2.298744     0.194847
 C    -2.962666    -1.969214     2.426962
 C    -4.171843    -1.159137     2.802105
 H    -4.971188    -1.286934     2.054978
 H    -3.981492    -0.082197     2.860198
 H    -4.564180    -1.487116     3.774594
 C    -0.890045    -3.757773     1.716160
 H    -0.099749    -4.446768     1.409910
 C    -2.772731    -3.186088     3.097204
 H    -3.464327    -3.447746     3.902800
 C    -1.753319    -4.071843     2.760535
 H    -1.647721    -5.012837     3.306103
 H     0.947750    -0.641667     1.984917
 H     0.817334     1.032094     1.457399
 C     2.742461     0.556675     2.195388
 C     3.197266     1.880039     2.112661
 H     2.628290     2.604323     1.523870
 C     3.471490    -0.351502     2.973018
 H     3.126857    -1.383320     3.066954
 C     4.360631     2.277399     2.765787
 H     4.698861     3.313290     2.685785
 C     4.635589     0.044107     3.627608
 H     5.191428    -0.680104     4.228004
 C     5.088961     1.358429     3.521105
 H     6.001810     1.668588     4.035135
 C     2.340207    -2.773455     0.663244
 H     1.831567    -2.458446     1.574119
 C     3.043033    -2.341873    -1.621317
 C     3.198487    -1.491684    -2.849575
 H     4.121632    -0.892401    -2.798472
 H     2.373086    -0.784326    -2.987713
 H     3.255640    -2.124487    -3.745680
 C     2.892399    -4.049388     0.620901
 H     2.823975    -4.701041     1.495291
 C     3.588218    -3.631683    -1.639759
 H     4.075269    -3.974544    -2.556722
 C     3.524483    -4.481980    -0.540890
 H     3.961806    -5.481542    -0.596139
 C     1.970283     1.925603    -1.866389
 H     0.903259     1.774985    -2.066668
 C     4.024921     1.102517    -0.862648
 C     4.878189     0.122227    -0.110716
 H     5.613220    -0.336332    -0.792079
 H     4.307214    -0.686570     0.350218
 H     5.440205     0.633047     0.685281
 C     2.637785     3.003679    -2.434278
 H     2.094385     3.717526    -3.057654
 C     4.677577     2.200001    -1.445142
 H     5.755310     2.302684    -1.288916
 C     4.005795     3.145717    -2.210090
 H     4.554030     3.985453    -2.644346
