 108
scf done:    -2767.253446
 C     0.584429    -3.729082    -0.460102
 H     0.357761    -4.439519    -1.271584
 H     1.641182    -3.458647    -0.625600
 C     0.429348    -4.435583     0.881017
 H     1.105073    -5.305913     0.983139
 H     0.637825    -3.770585     1.737099
 H    -0.597965    -4.806479     1.024686
Rh    -0.675655    -2.011984    -0.564765
 C     1.223217     1.001848     0.332110
 C     2.554043    -1.516273     1.019818
 C     2.126768    -0.834241    -1.882558
 C    -1.869601     1.467095    -0.920065
 C    -3.766733    -0.636153    -1.632560
 C    -3.022398    -0.193218     1.169241
 P    -2.276157    -0.324455    -0.526975
 P     1.329373    -0.789162    -0.191047
 C    -1.868262    -3.219270    -1.244882
 O    -2.575143    -3.998832    -1.717782
 H     0.372564     0.995280     1.031586
 H     0.904649     1.545160    -0.568471
 C     2.380438     1.701854     0.981421
 C     3.295980     2.459834     0.241864
 H     3.179244     2.545661    -0.838092
 C     2.536227     1.650277     2.373854
 H     1.809869     1.091303     2.968097
 C     4.349883     3.117953     0.871550
 H     5.049637     3.703510     0.269744
 C     3.590047     2.307701     3.006349
 H     3.689811     2.249840     4.093076
 C     4.507807     3.040860     2.255295
 H     5.334159     3.559541     2.747243
 H     2.428865    -0.932001     1.942199
 H     2.178911    -2.526017     1.228794
 C     4.000130    -1.584763     0.622504
 C     4.464745    -2.653153    -0.157480
 H     3.772269    -3.444086    -0.459091
 C     4.916142    -0.607353     1.024675
 H     4.571231     0.224617     1.640528
 C     5.801236    -2.717290    -0.542593
 H     6.149209    -3.551183    -1.157006
 C     6.264857    -0.662774     0.657031
 C     7.224789     0.386398     1.137379
 H     6.733650     1.366995     1.213574
 H     7.608936     0.136125     2.140473
 H     8.092001     0.478392     0.467637
 C     6.696050    -1.725709    -0.144270
 H     7.744155    -1.781204    -0.451400
 H     2.742801    -1.744852    -1.888185
 H     1.274947    -1.028895    -2.550024
 C     2.908000     0.347001    -2.365498
 C     2.252178     1.410074    -3.000496
 H     1.170438     1.361850    -3.155927
 C     4.296530     0.411386    -2.214793
 H     4.818813    -0.419897    -1.738091
 C     2.972150     2.514593    -3.450422
 H     2.453082     3.336753    -3.949145
 C     5.033585     1.515977    -2.651887
 C     6.514656     1.578779    -2.419514
 H     6.958964     0.573588    -2.397841
 H     7.023723     2.171911    -3.193050
 H     6.732367     2.047177    -1.445031
 C     4.353332     2.570872    -3.272356
 H     4.912896     3.440720    -3.627375
 H    -1.250447     1.429425    -1.829684
 H    -1.216963     1.792226    -0.099229
 C    -3.011616     2.416917    -1.088942
 C    -3.577878     3.072327     0.013101
 H    -3.140956     2.927300     1.002907
 C    -3.561773     2.666491    -2.354815
 H    -3.113987     2.198145    -3.235970
 C    -4.677496     3.914013    -0.136362
 H    -5.101293     4.411091     0.739556
 C    -4.662184     3.507020    -2.509201
 H    -5.075059     3.680879    -3.505637
 C    -5.231920     4.127143    -1.398078
 H    -6.096133     4.784531    -1.516818
 H    -3.841519     0.212922    -2.324754
 H    -3.522161    -1.523883    -2.228743
 C    -5.068890    -0.826855    -0.915557
 C    -5.467451    -2.098606    -0.487921
 H    -4.848693    -2.968220    -0.724093
 C    -5.885383     0.270648    -0.618282
 H    -5.584150     1.265632    -0.955246
 C    -6.648991    -2.253577     0.234919
 H    -6.952509    -3.248962     0.568718
 C    -7.073574     0.130230     0.103285
 C    -7.941324     1.322849     0.385336
 H    -7.373397     2.259738     0.293422
 H    -8.782674     1.375336    -0.325795
 H    -8.374153     1.276733     1.395950
 C    -7.442952    -1.149865     0.534838
 H    -8.365209    -1.281695     1.107682
 H    -3.730646     0.646375     1.217106
 H    -3.616194    -1.112629     1.286755
 C    -1.972537    -0.113670     2.238517
 C    -1.195287    -1.240271     2.545354
 H    -1.354554    -2.168495     1.985811
 C    -1.740993     1.068844     2.947796
 H    -2.350679     1.950472     2.729364
 C    -0.234032    -1.176097     3.548680
 H     0.353751    -2.064883     3.791537
 C    -0.771294     1.155286     3.955256
 C    -0.511692     2.451871     4.664824
 H    -1.397072     3.103641     4.656191
 H    -0.216819     2.287463     5.711567
 H     0.309270     3.004869     4.176617
 C    -0.026263     0.009633     4.253824
 H     0.722309     0.045251     5.050634
