 112
scf done:    -2619.760256
 C    -1.503749    -3.755592    -0.902335
 H    -1.407542    -4.739147    -0.411507
 H    -2.504181    -3.399298    -0.605508
 C    -1.481783    -3.937329    -2.415964
 H    -0.535092    -4.379436    -2.764860
 H    -2.296213    -4.598397    -2.768940
 H    -1.595731    -2.980522    -2.951752
Rh     0.070479    -2.453371    -0.264578
 C    -2.791128    -0.666942    -1.154199
 C    -2.763750    -1.811269     1.574435
 C    -1.471551     0.721777     1.047086
 C     2.046084     0.375624     1.033037
 C     3.471050    -2.072001     0.577880
 C     2.486718    -0.518845    -1.714286
 P     1.958416    -1.135430    -0.017160
 P    -1.694391    -0.988258     0.284736
 C     1.078326    -3.980407    -0.434111
 O     1.657351    -4.975052    -0.489059
 H    -3.627142    -0.020832    -0.847152
 H    -3.210965    -1.635432    -1.463307
 C    -2.002930    -0.020613    -2.289509
 H    -1.334776     0.750686    -1.877762
 H    -1.343160    -0.777248    -2.750610
 C    -2.875400     0.640174    -3.356868
 H    -3.512186     1.380109    -2.835861
 C    -2.007808     1.399301    -4.353073
 H    -1.407499     2.171837    -3.847189
 H    -2.618462     1.899985    -5.120483
 H    -1.313063     0.718045    -4.872576
 C    -3.782297    -0.363155    -4.059461
 H    -4.407308     0.128797    -4.820986
 H    -4.458625    -0.870108    -3.354430
 H    -3.187155    -1.141294    -4.566448
 H    -2.987392    -2.811399     1.178158
 H    -2.094564    -1.959129     2.435801
 C    -4.007165    -1.080405     1.969255
 C    -4.054702    -0.314867     3.140278
 H    -3.190940    -0.297292     3.810675
 C    -5.144739    -1.114961     1.150777
 H    -5.128888    -1.732129     0.248274
 C    -5.197827     0.415220     3.461362
 H    -5.223322     1.008525     4.378459
 C    -6.295177    -0.381560     1.450073
 C    -7.477465    -0.391688     0.525509
 H    -7.481003     0.508913    -0.111165
 H    -7.462183    -1.265810    -0.140518
 H    -8.426145    -0.399414     1.082243
 C    -6.306007     0.391003     2.619753
 H    -7.198271     0.968608     2.876657
 H    -1.820863     0.631984     2.086532
 H    -0.393997     0.893374     1.089606
 C    -2.132221     1.895534     0.385888
 C    -1.367050     2.810099    -0.347557
 H    -0.284280     2.679239    -0.420373
 C    -3.513382     2.104677     0.476047
 H    -4.120385     1.415501     1.066383
 C    -1.977340     3.882301    -0.994111
 H    -1.367190     4.589848    -1.561370
 C    -4.142921     3.171009    -0.172290
 C    -5.633913     3.331835    -0.093887
 H    -6.038167     2.856583     0.811453
 H    -5.929350     4.391326    -0.093562
 H    -6.124500     2.857783    -0.961143
 C    -3.356432     4.059156    -0.915806
 H    -3.828829     4.901747    -1.428379
 H     1.391478     1.122694     0.556304
 H     3.057648     0.800368     0.967227
 C     1.630949     0.121710     2.474021
 H     0.690512    -0.456347     2.485121
 H     2.371232    -0.530793     2.972039
 C     1.457416     1.393886     3.307585
 H     0.734126     2.040330     2.775432
 C     0.866060     1.060055     4.671486
 H    -0.099979     0.539890     4.572078
 H     0.699837     1.967443     5.272301
 H     1.540539     0.400323     5.242576
 C     2.760102     2.174832     3.446311
 H     2.611457     3.092389     4.036154
 H     3.168758     2.472353     2.468625
 H     3.526380     1.570775     3.961508
 H     3.240253    -2.356388     1.616657
 H     3.489826    -3.005489    -0.002431
 C     4.777245    -1.352248     0.472023
 C     5.609931    -1.546212    -0.639213
 H     5.337623    -2.288434    -1.394461
 C     5.181875    -0.431414     1.447000
 H     4.566877    -0.298740     2.340864
 C     6.784050    -0.811154    -0.780590
 H     7.424846    -0.973983    -1.650408
 C     6.347930     0.328820     1.314413
 C     6.707698     1.356567     2.347710
 H     6.184936     2.307521     2.149384
 H     6.416795     1.032508     3.357628
 H     7.786337     1.568436     2.351112
 C     7.145467     0.130018     0.181168
 H     8.065854     0.707761     0.060338
 H     3.425474    -1.033695    -1.964609
 H     1.714368    -0.887479    -2.403556
 C     2.651333     0.964149    -1.842459
 C     1.617304     1.753423    -2.353915
 H     0.702377     1.276797    -2.713220
 C     3.824813     1.596449    -1.409364
 H     4.645259     0.987977    -1.020846
 C     1.753352     3.140478    -2.413011
 H     0.940826     3.746004    -2.823392
 C     3.971993     2.984091    -1.449100
 C     5.226931     3.633896    -0.940572
 H     6.010415     2.887541    -0.747186
 H     5.620584     4.369925    -1.658327
 H     5.037520     4.173354     0.002469
 C     2.915816     3.753913    -1.956663
 H     3.012213     4.842371    -2.001398
