  98
scf done:    -2609.089490
 C    -2.316321     2.258885    -0.644250
 H    -2.383663     2.944107    -1.504854
 H    -3.103385     1.505655    -0.780008
 C    -2.543923     3.019744     0.653458
 H    -3.531187     3.521656     0.675691
 H    -2.507798     2.353439     1.530446
 H    -1.785524     3.803233     0.815854
Rh    -0.399337     1.363438    -0.422868
 C    -2.085235    -1.429240     1.114359
 O    -2.557805    -1.018108    -1.457154
 O    -0.224936    -1.816148    -0.798901
 C     2.584912    -0.461773    -0.971261
 O     2.685686     1.455564     0.960177
 O     1.366269    -0.612924     1.459372
 P     1.583765     0.466494     0.239228
 P    -1.355991    -0.697312    -0.390183
 C     0.225082     2.818729    -1.394064
 O     0.555064     3.604377    -2.170339
 C    -1.339199    -2.338778     1.865016
 H    -0.363434    -2.646612     1.489594
 C    -3.306548    -0.956439     1.634753
 O    -3.955410    -0.038349     0.898283
 C    -5.099964     0.584774     1.410078
 H    -5.925587    -0.133394     1.554991
 H    -5.401662     1.332588     0.666298
 H    -4.890218     1.095277     2.365791
 C    -1.801476    -2.817159     3.090491
 H    -1.205008    -3.533391     3.659161
 C    -3.770181    -1.427567     2.867747
 H    -4.715846    -1.070418     3.275599
 C    -3.018883    -2.359447     3.583757
 H    -3.393814    -2.719131     4.545122
 C    -2.497982    -0.466524    -2.767063
 H    -2.151030     0.580651    -2.707738
 H    -1.757187    -1.026394    -3.366540
 C    -3.870416    -0.568283    -3.393764
 H    -3.797060    -0.210974    -4.436027
 H    -4.153795    -1.634325    -3.449094
 C    -4.943974     0.206315    -2.642763
 H    -4.670392     1.275297    -2.623021
 H    -4.933950    -0.126897    -1.592621
 C    -6.331341     0.035136    -3.238493
 H    -6.368199     0.381949    -4.284187
 H    -6.640912    -1.022725    -3.233623
 H    -7.087495     0.603774    -2.675604
 C    -0.527485    -3.130337    -1.240516
 H    -1.249236    -3.609701    -0.554853
 H    -1.005250    -3.083203    -2.233381
 C     0.764878    -3.914908    -1.306962
 H     0.538320    -4.905687    -1.739177
 H     1.445044    -3.408973    -2.013800
 C     1.460239    -4.077965     0.038000
 H     0.766692    -4.562969     0.748300
 H     1.676152    -3.077548     0.448330
 C     2.740842    -4.891166    -0.052331
 H     2.547592    -5.911695    -0.421172
 H     3.455187    -4.421470    -0.746795
 H     3.232886    -4.982386     0.928674
 C     2.176714    -0.403061    -2.303584
 H     1.282367     0.185311    -2.534369
 C     3.716859    -1.228610    -0.630793
 O     4.071582    -1.238205     0.668178
 C     5.193080    -1.975693     1.069743
 H     5.073319    -3.050355     0.852400
 H     5.281785    -1.840167     2.154882
 H     6.116458    -1.611057     0.586892
 C     2.869910    -1.083447    -3.303324
 H     2.538366    -1.027280    -4.341801
 C     4.415662    -1.914942    -1.630020
 H     5.295912    -2.509670    -1.385550
 C     3.986382    -1.837735    -2.955894
 H     4.542492    -2.380640    -3.724338
 C     3.856989     2.006709     0.392860
 H     4.528126     2.201528     1.245898
 H     4.354468     1.266595    -0.256188
 C     3.595250     3.288910    -0.371011
 H     4.572332     3.678235    -0.709267
 H     3.026592     3.062389    -1.288818
 C     2.863913     4.347482     0.441840
 H     3.420275     4.530566     1.378946
 H     1.885343     3.941485     0.748098
 C     2.671463     5.653379    -0.311165
 H     3.638122     6.095905    -0.602817
 H     2.085897     5.495438    -1.229653
 H     2.137396     6.395903     0.301111
 C     1.777097    -0.432341     2.803247
 H     1.504708    -1.377659     3.300257
 H     2.873270    -0.326593     2.843855
 C     1.103045     0.739246     3.498521
 H     1.380982     0.687848     4.566932
 H     1.529970     1.678652     3.111351
 C    -0.411061     0.772530     3.354449
 H    -0.842388    -0.185497     3.690471
 H    -0.660826     0.850365     2.280088
 C    -1.055002     1.925696     4.103411
 H    -0.840290     1.877068     5.183762
 H    -0.685908     2.895994     3.734258
 H    -2.149012     1.921080     3.981869
