  58
scf done:    -1836.939003
 C    -3.811738     0.187911     0.736614
 H    -4.524642    -0.627642     0.939578
 H    -3.668255     0.674847     1.718487
 C    -4.434530     1.164708    -0.253788
 H    -4.679563     0.666372    -1.205359
 H    -5.372286     1.615589     0.125499
 H    -3.757704     1.998117    -0.505309
Rh    -1.976808    -0.545088    -0.056202
 C     0.736249     1.740627     0.759479
 C    -1.813563     2.780536     1.435086
 C    -0.771698     0.629572     2.931401
 C     1.354531    -1.608428     0.110648
 C    -0.140104    -2.944837    -1.877719
 C     0.595872    -0.274748    -2.446333
 P    -0.033938    -1.300160    -1.061017
 P    -0.956338     1.172751     1.191345
 C    -2.957809    -2.015727    -0.551890
 O    -3.576668    -2.957454    -0.792706
 C     1.865575     1.424457     1.513535
 H     1.760072     0.829998     2.422504
 C     0.910860     2.477085    -0.432201
 O    -0.212645     2.719866    -1.139356
 C    -0.130682     3.382908    -2.370520
 H     0.257501     4.409803    -2.255747
 H    -1.152241     3.426698    -2.767869
 H     0.507282     2.834527    -3.084829
 C     3.141535     1.828390     1.115871
 H     4.008642     1.560459     1.722459
 C     2.183143     2.890970    -0.833297
 H     2.317046     3.464786    -1.750522
 C     3.293687     2.563980    -0.052992
 H     4.285310     2.894414    -0.372288
 H    -1.893277     3.299537     0.473256
 H    -2.822107     2.594668     1.827513
 H    -1.248015     3.402145     2.144415
 H    -0.338631     1.419777     3.563537
 H    -1.776950     0.373983     3.295238
 H    -0.151298    -0.273931     2.985566
 C     0.959598    -2.082496     1.365613
 H    -0.114996    -2.205495     1.543532
 C     2.730917    -1.433036    -0.133608
 O     3.090507    -1.001661    -1.359608
 C     4.435564    -0.723249    -1.625661
 H     4.829251     0.056455    -0.951470
 H     4.478858    -0.353638    -2.658216
 H     5.067138    -1.625238    -1.543446
 C     1.881973    -2.366281     2.371693
 H     1.543216    -2.737940     3.341011
 C     3.661236    -1.698537     0.878738
 H     4.725968    -1.546756     0.701641
 C     3.235325    -2.160808     2.122511
 H     3.977170    -2.364289     2.898791
 H    -0.457069    -3.695186    -1.140167
 H    -0.899877    -2.899075    -2.672325
 H     0.829629    -3.238632    -2.306462
 H     1.311139    -0.822180    -3.072338
 H    -0.283127     0.022878    -3.036546
 H     1.087097     0.621048    -2.051674
