 102
scf done:    -2688.671455
 C     2.616665     1.431519    -2.444891
 H     2.515088     2.416701    -2.926030
 H     3.629076     1.401272    -2.017102
 C     2.436808     0.346958    -3.493106
 H     3.137683     0.471545    -4.339943
 H     2.616179    -0.663582    -3.089504
 H     1.420941     0.352520    -3.924308
Rh     1.094765     1.129805    -1.022992
 C     2.138290    -2.387196    -0.676799
 C     4.193415    -0.419967    -0.420800
 C     2.311841    -0.679789     1.732395
 C    -1.452826    -0.612206     1.016089
 C    -1.645972     2.340914     0.829503
 C    -2.266678     0.582197    -1.466448
 P    -1.081742     0.854179    -0.084256
 P     2.379193    -0.619337    -0.118593
 C     1.010214     2.961971    -1.003926
 O     1.133612     4.097755    -0.844048
 H     2.290681    -2.344342    -1.764943
 H     2.936451    -3.015187    -0.261471
 C     0.798508    -2.993188    -0.398211
 C     0.483619    -3.511694     0.865312
 H     1.203963    -3.435042     1.681455
 C    -0.157347    -3.080718    -1.414891
 H     0.082768    -2.675265    -2.402357
 C    -0.751735    -4.110995     1.087096
 H    -0.993735    -4.506489     2.076148
 C    -1.403120    -3.687354    -1.210709
 C    -2.403409    -3.763446    -2.326857
 H    -2.695474    -2.756643    -2.666683
 H    -1.986547    -4.288440    -3.200701
 H    -3.313532    -4.294650    -2.015182
 C    -1.685930    -4.204033     0.057083
 H    -2.655322    -4.672882     0.243535
 C     4.881030    -1.311144    -1.256793
 H     4.363049    -2.158921    -1.704504
 C     4.891389     0.686248     0.120514
 C     4.229264     1.729574     0.968090
 H     4.074303     1.377843     1.999610
 H     3.238601     1.992318     0.561093
 H     4.842898     2.639907     1.008368
 C     6.234388    -1.150673    -1.542072
 H     6.738970    -1.863567    -2.198214
 C     6.253275     0.821631    -0.173227
 H     6.791108     1.676493     0.245640
 C     6.928909    -0.080985    -0.988459
 H     7.991569     0.060263    -1.199330
 C     1.535724     0.322921     2.329102
 H     1.049450     1.048119     1.667611
 C     3.034321    -1.570548     2.560593
 C     3.970323    -2.630726     2.053277
 H     4.575292    -2.274821     1.208879
 H     3.430276    -3.532429     1.721283
 H     4.655036    -2.945823     2.852395
 C     1.413476     0.438329     3.709509
 H     0.811809     1.243160     4.138384
 C     2.885298    -1.446280     3.949484
 H     3.436315    -2.136221     4.594585
 C     2.082549    -0.467567     4.526946
 H     2.001600    -0.400945     5.614632
 H    -1.030729    -1.430367     0.417376
 H    -0.802756    -0.524594     1.897373
 C    -2.864560    -0.933287     1.393000
 C    -3.398183    -0.590483     2.642116
 H    -2.770616    -0.097289     3.386784
 C    -3.691119    -1.597621     0.481121
 H    -3.280074    -1.879902    -0.488157
 C    -4.726644    -0.878299     2.943275
 H    -5.133038    -0.602103     3.919336
 C    -5.027277    -1.890916     0.762990
 C    -5.871338    -2.591953    -0.261689
 H    -5.554221    -3.640446    -0.388086
 H    -6.933594    -2.597717     0.020593
 H    -5.777695    -2.108230    -1.246876
 C    -5.541011    -1.514913     2.008241
 H    -6.585549    -1.729742     2.250101
 C    -1.592490     2.309725     2.230196
 H    -1.303240     1.389144     2.736979
 C    -1.981190     3.550615     0.178272
 C    -2.045411     3.708534    -1.315113
 H    -3.053946     3.489747    -1.700049
 H    -1.353252     3.039490    -1.841401
 H    -1.796421     4.741000    -1.596253
 C    -1.891443     3.430293     2.997554
 H    -1.844514     3.373715     4.087673
 C    -2.280500     4.664161     0.972928
 H    -2.538191     5.602466     0.473961
 C    -2.246591     4.616713     2.362677
 H    -2.484563     5.508935     2.946456
 C    -1.661228     0.064811    -2.622109
 H    -0.572945    -0.067405    -2.619267
 C    -3.663753     0.795002    -1.447018
 C    -4.427583     1.386668    -0.296454
 H    -4.557861     2.472638    -0.432349
 H    -3.937466     1.239405     0.670101
 H    -5.429107     0.938324    -0.236983
 C    -2.400190    -0.258151    -3.754818
 H    -1.901298    -0.656103    -4.641340
 C    -4.387775     0.461021    -2.602021
 H    -5.470023     0.619406    -2.598369
 C    -3.778940    -0.058658    -3.739943
 H    -4.382907    -0.303242    -4.617266
