  92
scf done:    -4444.152955
 C    -0.386754    -3.763231     1.215301
 H    -0.536798    -4.592020     0.504314
 H     0.677036    -3.831947     1.499046
 C    -1.260932    -3.964088     2.446697
 H    -1.017138    -4.903283     2.976857
 H    -1.147719    -3.148058     3.179617
 H    -2.331917    -4.005402     2.192697
Rh    -0.845815    -1.928757     0.192151
 C     1.106299    -1.072015     2.939347
 O     2.462066    -2.136327     0.974826
 O     1.622713     0.248958     0.594312
 C    -0.151185     0.665805    -2.089927
 O    -2.702649     0.328791    -1.534656
 O    -1.244445     1.271571     0.381337
 P    -1.246341     0.056563    -0.768231
 P     1.081546    -1.237204     1.137933
 C    -2.358118    -2.861804    -0.439080
 O    -3.239717    -3.483006    -0.817926
 H     2.090745    -0.682404     3.247203
 H     1.021084    -2.096684     3.333294
 C    -0.048327    -0.186169     3.396337
 H    -0.050425     0.748051     2.810114
 H    -1.001548    -0.682097     3.138376
 C    -0.035821     0.155260     4.886485
 H     0.928165     0.654395     5.105002
 C    -1.156156     1.139045     5.202856
 H    -1.078796     2.050017     4.588949
 H    -1.139522     1.440849     6.261254
 H    -2.140955     0.686018     5.000943
 C    -0.130353    -1.087388     5.764175
 H    -0.134872    -0.818479     6.831526
 H     0.712403    -1.776549     5.603440
 H    -1.060538    -1.642229     5.555771
 C     2.928466    -2.639426    -0.211963
 C     4.299069    -2.893738    -0.279542
 H     4.917007    -2.682317     0.594868
 C     2.109246    -2.897943    -1.310928
 H     1.027371    -2.716444    -1.238606
 C     4.855945    -3.402197    -1.447704
 H     5.926222    -3.604711    -1.510950
 C     2.667713    -3.402921    -2.482396
 H     2.035579    -3.611729    -3.347063
 C     4.037173    -3.650667    -2.549761
Cl     4.729733    -4.273782    -4.010784
 C     2.811630     0.835024     0.939679
 C     3.933041     0.637425     0.133608
 H     3.859938    -0.022591    -0.732502
 C     2.880132     1.685778     2.044113
 H     1.991210     1.849383     2.655934
 C     5.128739     1.279064     0.438404
 H     6.012460     1.131343    -0.184191
 C     4.075551     2.330343     2.351279
 H     4.141666     2.998833     3.210973
 C     5.196060     2.121255     1.548686
Cl     6.683425     2.920145     1.929238
 H     0.113827    -0.245259    -2.654124
 H     0.763924     0.949749    -1.546843
 C    -0.636192     1.756875    -3.035450
 H    -1.525998     1.391208    -3.570674
 H    -0.967122     2.641581    -2.469533
 C     0.425690     2.196437    -4.047614
 H     0.770817     1.294507    -4.588376
 C    -0.190980     3.149490    -5.065115
 H    -1.043521     2.686879    -5.586169
 H     0.543596     3.456740    -5.825333
 H    -0.558991     4.062762    -4.568435
 C     1.635846     2.836816    -3.374686
 H     2.380877     3.153493    -4.120541
 H     2.142749     2.151536    -2.678002
 H     1.332791     3.729352    -2.802423
 C    -3.893139    -0.107545    -1.029808
 C    -4.148575    -0.169500     0.343066
 H    -3.383395     0.140579     1.056834
 C    -4.873657    -0.494664    -1.943899
 H    -4.649272    -0.441948    -3.010546
 C    -5.380508    -0.635654     0.795644
 H    -5.588114    -0.696454     1.864976
 C    -6.105669    -0.952210    -1.492511
 H    -6.876413    -1.263479    -2.199139
 C    -6.353217    -1.026200    -0.121267
Cl    -7.884097    -1.607341     0.443988
 C    -1.234988     2.609403     0.095541
 C    -2.420595     3.273257    -0.222576
 H    -3.359472     2.717737    -0.246076
 C    -0.026980     3.304886     0.144573
 H     0.886092     2.767029     0.400824
 C    -2.391579     4.631302    -0.524479
 H    -3.308387     5.162531    -0.784615
 C     0.004391     4.663226    -0.154893
 H     0.944397     5.216697    -0.129432
 C    -1.177793     5.318685    -0.498228
Cl    -1.139061     7.005362    -0.890589
