 102
scf done:    -3061.231870
 C    -1.123246    -0.435549    -2.923636
 H    -1.597063    -1.393423    -3.187163
 H    -1.939586     0.286222    -2.783364
 C    -0.199124     0.037923    -4.034679
 H     0.620973    -0.671495    -4.231716
 H    -0.745308     0.175175    -4.988021
 H     0.269386     1.007242    -3.795541
Rh     0.055781    -0.551563    -1.168237
 C    -1.437540     2.434430     0.306224
 O    -3.044456     0.583450    -0.517651
 O    -1.565744     0.049402     1.525421
 C     1.682248    -1.102997     2.053731
 O     3.205404    -0.749531    -0.076543
 O     1.886386     1.258612     0.795567
 P     1.668609    -0.339639     0.402291
 P    -1.465427     0.643387    -0.027810
 C     0.537007    -2.250064    -1.790323
 O     0.649647    -3.361908    -2.057209
 C    -1.295637     2.947857     1.593862
 H    -1.212904     2.252954     2.431926
 C    -1.504908     3.318612    -0.787198
 O    -1.578504     2.740220    -1.999497
 C    -1.581893     3.535638    -3.153938
 H    -2.472942     4.185358    -3.195863
 H    -1.600072     2.843251    -4.004272
 H    -0.674309     4.160326    -3.216412
 C    -1.265970     4.325515     1.812992
 H    -1.160989     4.717032     2.826461
 C    -1.486268     4.699388    -0.572432
 H    -1.554391     5.393832    -1.409911
 C    -1.373887     5.191510     0.728565
 H    -1.358443     6.272343     0.887944
 C    -3.678520    -0.506413    -1.051177
 C    -3.335615    -1.813342    -0.718322
 H    -2.515681    -2.000529    -0.025263
 C    -4.720476    -0.223559    -1.946874
 C    -5.041772     1.200187    -2.279482
 H    -5.374405     1.750777    -1.385137
 H    -4.146058     1.724112    -2.648346
 H    -5.830668     1.261745    -3.041403
 C    -4.033985    -2.872699    -1.294645
 H    -3.759771    -3.898573    -1.038853
 C    -5.407843    -1.303614    -2.502259
 H    -6.221348    -1.102728    -3.204859
 C    -5.071482    -2.620652    -2.187360
 H    -5.622098    -3.447980    -2.640447
 C    -2.715734    -0.223538     2.227604
 C    -3.758076     0.696330     2.337515
 H    -3.685326     1.659865     1.833708
 C    -2.786248    -1.485145     2.839385
 C    -1.650784    -2.451149     2.714157
 H    -1.234414    -2.461547     1.695629
 H    -0.822011    -2.163767     3.378617
 H    -1.966516    -3.468139     2.984957
 C    -4.893735     0.365741     3.072809
 H    -5.711155     1.086015     3.152405
 C    -3.936686    -1.786262     3.573332
 H    -4.009238    -2.766302     4.052889
 C    -4.985211    -0.876874     3.694235
 H    -5.875896    -1.142675     4.267830
 C     1.512941    -0.357459     3.219296
 H     1.406323     0.726378     3.142385
 C     1.778688    -2.505096     2.137813
 O     1.861229    -3.154165     0.962399
 C     1.777557    -4.554667     0.927930
 H     2.651331    -5.025774     1.410112
 H     1.750345    -4.832320    -0.132577
 H     0.856379    -4.912129     1.418651
 C     1.488343    -0.981521     4.466175
 H     1.361653    -0.387923     5.373333
 C     1.772734    -3.133706     3.385645
 H     1.865563    -4.217120     3.462770
 C     1.632939    -2.364380     4.541412
 H     1.625205    -2.862824     5.513702
 C     3.534624    -1.223777    -1.322051
 C     3.977926    -2.540633    -1.411443
 H     4.015622    -3.131183    -0.495968
 C     3.467752    -0.395324    -2.452822
 C     3.025814     1.030742    -2.341448
 H     1.957858     1.091562    -2.064951
 H     3.596243     1.565872    -1.567093
 H     3.152173     1.555647    -3.297717
 C     4.342960    -3.070666    -2.645226
 H     4.684496    -4.106017    -2.713552
 C     3.833668    -0.955376    -3.680880
 H     3.781026    -0.328582    -4.575143
 C     4.261279    -2.277210    -3.787135
 H     4.536868    -2.683972    -4.762589
 C     3.046909     1.916784     1.121915
 C     4.090806     1.319042     1.827545
 H     4.023072     0.271371     2.117383
 C     3.120213     3.257590     0.707869
 C     1.990161     3.872817    -0.055110
 H     1.704516     3.251473    -0.916821
 H     1.091408     3.960059     0.572262
 H     2.257201     4.875934    -0.414304
 C     5.225276     2.064303     2.141485
 H     6.041196     1.590457     2.692000
 C     4.270433     3.978383     1.039386
 H     4.340964     5.022642     0.722622
 C     5.318328     3.397115     1.750922
 H     6.207443     3.983413     1.993067
