  92
scf done:    -3003.038465
 C    -0.132318    -3.879439    -0.551550
 H     0.483505    -4.324647    -1.350842
 H     0.403972    -4.101010     0.388189
 C    -1.507446    -4.533816    -0.510029
 H    -2.007299    -4.500533    -1.490899
 H    -1.454190    -5.596352    -0.207502
 H    -2.187153    -4.031427     0.198780
Rh    -0.366611    -1.786096    -0.832436
 C     2.781014    -2.495515     0.630713
 O     1.965328     0.067299     0.387641
 O     0.990635    -1.459582     2.268872
 C     0.188417     1.548350    -1.999398
 O    -2.308686     0.827474    -1.543995
 O    -0.798680     1.123132     0.541068
 P    -0.801310     0.420478    -0.968052
 P     1.298842    -1.444639     0.625042
 C    -0.994225    -2.178320    -2.559913
 O    -1.216470    -2.377275    -3.667854
 H     3.465555    -2.138470     1.417084
 H     2.435239    -3.496592     0.934366
 C     3.451091    -2.539310    -0.736023
 H     2.694648    -2.793751    -1.498816
 H     3.819184    -1.532272    -0.996885
 C     4.604269    -3.529796    -0.797738
 H     4.231571    -4.538383    -0.542662
 H     5.347451    -3.277575    -0.019468
 C     5.288591    -3.571539    -2.156724
 H     4.539134    -3.816514    -2.929796
 H     5.655104    -2.559988    -2.406644
 C     6.438010    -4.563830    -2.223127
 H     6.911872    -4.570723    -3.216275
 H     6.093094    -5.588904    -2.012465
 H     7.218451    -4.321846    -1.483754
 C     3.115740     0.575313     0.921895
 C     3.992503     1.226470     0.050498
 H     3.752168     1.258149    -1.013976
 C     3.396242     0.522248     2.290314
 H     2.702187     0.015544     2.961394
 C     5.150172     1.823373     0.539732
 H     5.848487     2.338309    -0.122350
 C     4.560204     1.111323     2.779332
 H     4.803924     1.081362     3.842841
 C     5.422568     1.755941     1.901366
 F     6.531388     2.322929     2.372952
 C    -0.307699    -1.336170     2.706572
 C    -1.189105    -2.407961     2.570031
 H    -0.838076    -3.336663     2.119403
 C    -0.732225    -0.141242     3.283434
 H    -0.035755     0.694697     3.362413
 C    -2.505534    -2.285742     3.005474
 H    -3.213734    -3.109838     2.905190
 C    -2.048214    -0.011830     3.719372
 H    -2.412161     0.918171     4.159251
 C    -2.918359    -1.085901     3.569242
 F    -4.189979    -0.956318     3.956857
 H     1.117520     1.689173    -1.422057
 H     0.472288     0.935208    -2.871898
 C    -0.412708     2.876031    -2.442524
 H    -1.316876     2.682217    -3.040861
 H    -0.748050     3.454398    -1.568617
 C     0.576735     3.713075    -3.240625
 H     0.913357     3.146011    -4.127949
 H     1.483315     3.883053    -2.630862
 C     0.008735     5.055456    -3.679444
 H    -0.899789     4.882832    -4.282933
 H    -0.327927     5.610662    -2.786102
 C     0.995869     5.900788    -4.467517
 H     0.556741     6.864036    -4.767996
 H     1.322696     5.384031    -5.384316
 H     1.898497     6.118199    -3.873838
 C    -3.405119     0.074984    -1.206655
 C    -3.620071    -0.367427     0.101128
 H    -2.899116    -0.133083     0.886209
 C    -4.322656    -0.226355    -2.212489
 H    -4.125890     0.119706    -3.228496
 C    -4.762413    -1.105521     0.403227
 H    -4.957820    -1.442556     1.422305
 C    -5.463713    -0.964263    -1.912709
 H    -6.196335    -1.215618    -2.681564
 C    -5.670022    -1.395319    -0.606704
 F    -6.765113    -2.099212    -0.319569
 C    -0.855186     2.462400     0.808019
 C    -2.080386     3.131159     0.813510
 H    -2.993347     2.580996     0.580431
 C     0.325778     3.140510     1.113554
 H     1.267747     2.589970     1.118693
 C    -2.120513     4.493270     1.098012
 H    -3.062023     5.045290     1.103590
 C     0.287619     4.502794     1.398814
 H     1.195409     5.059956     1.636827
 C    -0.935409     5.163703     1.381252
 F    -0.974242     6.467688     1.650626
