 114
scf done:    -2546.017369
 C     1.136954    -3.619309     0.955349
 H     0.528856    -4.534481     0.882416
 H     2.056545    -3.835616     0.390429
 C     1.443533    -3.344628     2.420757
 H     1.918820    -4.209274     2.923028
 H     2.125310    -2.486676     2.558150
 H     0.529522    -3.112599     2.993514
Rh     0.060423    -1.934101     0.293340
 C     2.449141     0.462511     1.575336
 C     3.584938    -1.728125    -0.059220
 C     1.988546     0.458662    -1.360107
 C    -2.153089     0.096309    -1.586957
 C    -3.102951    -0.923484     1.032759
 C    -1.213077     1.420385     0.909448
 P    -1.584794    -0.254462     0.174464
 P     2.060562    -0.673907     0.119518
 C    -1.118510    -3.087121    -0.499318
 O    -1.792147    -3.752198    -1.165745
 H     1.461433     0.655651     2.014687
 H     2.974835    -0.179408     2.299348
 C     3.169580     1.768867     1.396542
 C     4.503534     1.941856     1.786267
 H     5.043791     1.116736     2.254878
 C     2.503896     2.872731     0.849180
 H     1.455061     2.771575     0.563223
 C     5.149890     3.158288     1.584952
 H     6.193673     3.272318     1.887681
 C     3.132092     4.103092     0.639494
 C     2.364359     5.256517     0.060853
 H     1.703709     5.710326     0.818271
 H     3.035464     6.045127    -0.307260
 H     1.724941     4.935522    -0.775526
 C     4.476006     4.230404     1.004194
 H     4.993433     5.179961     0.843711
 H     3.430730    -2.463150     0.751364
 C     4.963579    -1.112088     0.172201
 H     4.996088    -0.601028     1.143187
 H     5.181368    -0.346492    -0.588616
 C     6.045800    -2.190345     0.136531
 H     7.037631    -1.729975     0.276810
 H     5.896868    -2.874879     0.991347
 C     6.008742    -2.995551    -1.157046
 H     6.775048    -3.787480    -1.138027
 H     6.267512    -2.333137    -2.003453
 C     4.626428    -3.592043    -1.395664
 H     4.405404    -4.337839    -0.610932
 H     4.598601    -4.133632    -2.355040
 C     3.549730    -2.513018    -1.374018
 H     3.725901    -1.821657    -2.215600
 H     2.548990    -2.948531    -1.523939
 H     1.325874     1.264551    -0.991501
 C     1.266370    -0.180841    -2.549589
 H     0.365104    -0.702803    -2.195957
 H     1.906779    -0.959179    -2.994959
 C     0.945471     0.868416    -3.607379
 H     0.429887     0.401815    -4.462506
 H     0.237271     1.605216    -3.184279
 C     2.203544     1.594797    -4.072359
 H     1.948675     2.387783    -4.794370
 H     2.849473     0.879744    -4.613288
 C     2.983090     2.173436    -2.896351
 H     2.396613     2.984363    -2.426455
 H     3.920677     2.635979    -3.245184
 C     3.286281     1.113862    -1.839789
 H     3.934207     0.339781    -2.284361
 H     3.849089     1.560393    -1.009952
 H    -1.614198     0.999422    -1.909917
 H    -1.727052    -0.738164    -2.160681
 C    -3.618119     0.192936    -1.889462
 C    -4.373382    -0.977905    -2.035080
 H    -3.879511    -1.951658    -1.972084
 C    -4.269116     1.424390    -2.026054
 H    -3.689323     2.347013    -1.942110
 C    -5.746495    -0.906319    -2.254658
 H    -6.327340    -1.826680    -2.353511
 C    -5.645141     1.515205    -2.254427
 C    -6.311680     2.850875    -2.416291
 H    -5.712818     3.658267    -1.971036
 H    -6.453030     3.094524    -3.482529
 H    -7.306480     2.863398    -1.946744
 C    -6.382121     0.328899    -2.351107
 H    -7.461918     0.375574    -2.517052
 H    -3.445843    -1.663165     0.285372
 C    -4.279670     0.016044     1.306292
 H    -4.547181     0.591952     0.410702
 H    -3.995906     0.745790     2.084198
 C    -5.492429    -0.775959     1.790028
 H    -6.329553    -0.089208     1.996765
 H    -5.829786    -1.436453     0.971320
 C    -5.168654    -1.612502     3.022182
 H    -6.045162    -2.208603     3.324702
 H    -4.946196    -0.936996     3.868706
 C    -3.965142    -2.516562     2.778553
 H    -4.223606    -3.274496     2.017078
 H    -3.708265    -3.072878     3.694704
 C    -2.755631    -1.724251     2.294124
 H    -2.425982    -1.041033     3.094512
 H    -1.906093    -2.394978     2.082755
 H    -0.198794     1.613070     0.513680
 C    -1.092794     1.313574     2.432859
 H    -0.453085     0.457035     2.705392
 H    -2.086604     1.093358     2.854654
 C    -0.576000     2.605631     3.057169
 H    -0.545918     2.503346     4.153870
 H     0.464570     2.785869     2.736048
 C    -1.443145     3.793470     2.656039
 H    -1.037482     4.726579     3.079272
 H    -2.452500     3.668741     3.088699
 C    -1.561593     3.905470     1.140571
 H    -0.569166     4.143191     0.716641
 H    -2.220707     4.745204     0.866217
 C    -2.079669     2.613929     0.510069
 H    -3.123374     2.444397     0.818417
 H    -2.091846     2.723227    -0.584202
