 102
scf done:    -3061.157919
 C     1.933085     2.074127    -2.593794
 H     1.978282     3.160160    -2.773089
 H     2.913264     1.802225    -2.169366
 C     1.700907     1.332279    -3.901744
 H     2.487399     1.553237    -4.648646
 H     1.706722     0.240870    -3.751708
 H     0.736934     1.604545    -4.362073
Rh     0.320903     1.520699    -1.324672
 O     2.686121    -0.808400    -1.684944
 C     2.971140     0.667869     0.651492
 C     1.212624    -1.558180     0.430169
 O    -1.422777     0.142596     1.233958
 C    -2.869298     2.066301     0.004414
 C    -2.464690    -0.467140    -1.262651
 P    -1.586592     0.809684    -0.312144
 P     1.758516    -0.073451    -0.481699
 C    -0.315341     3.245856    -1.585474
 O    -0.635331     4.346950    -1.653668
 C     3.963561    -1.260282    -1.495617
 C     5.023564    -0.361082    -1.597425
 H     4.798825     0.684771    -1.818830
 C     4.203699    -2.606595    -1.214187
 H     3.367533    -3.301902    -1.140041
 C     6.340964    -0.778880    -1.391046
 C     7.462542     0.217289    -1.439593
 H     7.362199     0.893811    -2.301561
 H     7.461407     0.844584    -0.532619
 H     8.441866    -0.277651    -1.502665
 C     5.516205    -3.030976    -1.022369
 H     5.714662    -4.083255    -0.804134
 C     6.575077    -2.127956    -1.102112
 H     7.599239    -2.474177    -0.940391
 C     3.895691    -0.101756     1.381853
 H     3.871846    -1.191838     1.320494
 C     3.031637     2.059684     0.754136
 H     2.307852     2.653941     0.186534
 C     4.851077     0.507632     2.175141
 H     5.579395    -0.078184     2.738606
 C     3.985136     2.685211     1.554949
 H     4.000433     3.773582     1.612785
 C     4.906993     1.908220     2.266120
 O     5.871780     2.410495     3.056516
 C     5.984207     3.800833     3.189606
 H     5.072458     4.246107     3.624669
 H     6.827391     3.984237     3.867363
 H     6.190561     4.289741     2.221476
 C     0.869153    -2.722168    -0.273650
 H     0.981628    -2.748368    -1.359983
 C     1.042841    -1.545761     1.815827
 H     1.278638    -0.643396     2.383438
 C     0.398254    -3.844990     0.391151
 H     0.129514    -4.754094    -0.150037
 C     0.562515    -2.662220     2.495165
 H     0.426182    -2.608736     3.574813
 C     0.236166    -3.820931     1.783304
 O    -0.267456    -4.937891     2.346451
 C    -0.562734    -4.923915     3.718011
 H    -1.297007    -4.137409     3.965421
 H    -0.993238    -5.904958     3.955188
 H     0.344495    -4.776549     4.329328
 C    -2.340266    -0.669214     1.838243
 C    -2.471729    -1.995593     1.428015
 H    -1.848324    -2.353628     0.608404
 C    -3.114175    -0.182408     2.894060
 H    -3.001092     0.854650     3.210351
 C    -3.391295    -2.852105     2.039829
 C    -3.552625    -4.255468     1.531380
 H    -3.945953    -4.247857     0.501250
 H    -2.586943    -4.783005     1.503357
 H    -4.247278    -4.835355     2.155620
 C    -4.015454    -1.036986     3.524113
 H    -4.620288    -0.663752     4.354280
 C    -4.160468    -2.357626     3.099364
 H    -4.883566    -3.012554     3.592843
 C    -3.837390     2.399558    -0.954852
 H    -3.909466     1.822606    -1.880030
 C    -2.782071     2.848677     1.158094
 H    -2.008878     2.627280     1.897967
 C    -4.705819     3.460138    -0.749059
 H    -5.463443     3.725637    -1.488600
 C    -3.651180     3.914700     1.379673
 H    -3.554612     4.500429     2.294037
 C    -4.624876     4.225118     0.422802
 O    -5.511073     5.232138     0.539136
 C    -5.460846     6.049304     1.674528
 H    -4.490925     6.569707     1.763254
 H    -6.255144     6.797620     1.559219
 H    -5.642590     5.477032     2.601609
 C    -1.738858    -1.171014    -2.237044
 H    -0.709384    -0.865356    -2.452747
 C    -3.788159    -0.846544    -1.012804
 H    -4.375674    -0.313696    -0.261600
 C    -2.307128    -2.232311    -2.922153
 H    -1.751554    -2.785702    -3.681237
 C    -4.373277    -1.910058    -1.694480
 H    -5.404292    -2.183257    -1.469713
 C    -3.627912    -2.618027    -2.647603
 O    -4.096586    -3.667965    -3.343899
 C    -5.402810    -4.114456    -3.104413
 H    -6.151682    -3.337702    -3.338006
 H    -5.566411    -4.975072    -3.764970
 H    -5.539740    -4.436582    -2.057013
