 102
scf done:    -2688.688979
 C     2.077160    -3.299723    -0.062628
 H     2.644528    -3.649058    -0.940395
 H     2.845964    -2.975767     0.661320
 C     1.281301    -4.457846     0.524383
 H     0.589786    -4.895069    -0.213876
 H     1.939012    -5.274042     0.878331
 H     0.666969    -4.155782     1.389526
Rh     0.770902    -1.700772    -0.553563
 C     2.681603    -0.447271     2.171506
 C     4.036353    -0.613587    -0.357279
 C     2.294820     1.508942     0.028020
 C    -1.670355     0.077087    -2.452399
 C    -2.513499    -1.046266     0.045432
 C    -1.061053     1.412518     0.070087
 P    -1.041956    -0.244968    -0.712622
 P     2.367276    -0.295825     0.347050
 C     0.212729    -2.735218    -1.974486
 O    -0.003259    -3.276172    -2.971706
 H     3.168504    -1.431450     2.268899
 H     3.411140     0.306283     2.501097
 C     1.441671    -0.399945     3.019509
 C     1.284018     0.572016     4.010315
 H     2.069600     1.315207     4.173045
 C     0.430598    -1.355823     2.851483
 H     0.546637    -2.117864     2.072729
 C     0.139398     0.588621     4.806661
 H     0.028250     1.351950     5.580990
 C    -0.719428    -1.360857     3.645134
 C    -1.798888    -2.381688     3.442581
 H    -1.454579    -3.212303     2.812409
 H    -2.144272    -2.792540     4.403385
 H    -2.672023    -1.935271     2.939895
 C    -0.854067    -0.367855     4.626381
 H    -1.747225    -0.352958     5.257186
 C     5.199709    -0.115150     0.240806
 H     5.143689     0.454680     1.171477
 C     4.147966    -1.295827    -1.571295
 H     3.237587    -1.678169    -2.041436
 C     6.441811    -0.319136    -0.350298
 H     7.339094     0.075722     0.134829
 C     5.393350    -1.486235    -2.164778
 H     5.457317    -2.020848    -3.116695
 C     6.562681    -1.011196    -1.562524
 C     7.908523    -1.253640    -2.179952
 H     7.832259    -1.409837    -3.265489
 H     8.593118    -0.411681    -1.999958
 H     8.379681    -2.153989    -1.751048
 C     2.251232     2.483977     1.023839
 H     2.172701     2.200313     2.073246
 C     2.357564     1.922273    -1.310706
 H     2.390728     1.170811    -2.105131
 C     2.295285     3.837182     0.690033
 H     2.263707     4.583604     1.488662
 C     2.403517     3.271522    -1.635187
 H     2.466692     3.569699    -2.685789
 C     2.377746     4.257043    -0.638580
 C     2.395841     5.713933    -0.995708
 H     2.661980     6.338786    -0.131255
 H     3.112747     5.923500    -1.803728
 H     1.404950     6.045718    -1.349992
 H    -1.055853     0.888380    -2.870147
 H    -1.402984    -0.831443    -3.009399
 C    -3.140252     0.342282    -2.557064
 C    -4.019935    -0.729651    -2.756762
 H    -3.618027    -1.736527    -2.894297
 C    -3.678656     1.619632    -2.372856
 H    -3.008146     2.466409    -2.211568
 C    -5.394925    -0.524030    -2.747397
 H    -6.070490    -1.370802    -2.890817
 C    -5.059478     1.844931    -2.361274
 C    -5.599459     3.234026    -2.175960
 H    -4.976667     3.816628    -1.480746
 H    -5.619465     3.781891    -3.133074
 H    -6.627455     3.219031    -1.786052
 C    -5.914012     0.753139    -2.543527
 H    -6.996675     0.906619    -2.527841
 C    -2.598468    -2.441588     0.050967
 H    -1.742576    -3.029833    -0.288462
 C    -3.615154    -0.310892     0.506354
 H    -3.584146     0.779787     0.501048
 C    -3.756101    -3.083650     0.487469
 H    -3.798161    -4.176292     0.479083
 C    -4.761231    -0.957165     0.951106
 H    -5.610265    -0.360563     1.296548
 C    -4.857951    -2.355925     0.943330
 C    -6.109439    -3.037560     1.411958
 H    -6.329518    -2.788597     2.462341
 H    -6.979630    -2.718163     0.816599
 H    -6.028237    -4.130569     1.333732
 C    -0.890454     2.596771    -0.656156
 H    -0.745075     2.568885    -1.736662
 C    -1.182707     1.508635     1.461338
 H    -1.290498     0.606557     2.065861
 C    -0.892190     3.832015    -0.018757
 H    -0.763142     4.739433    -0.615207
 C    -1.177566     2.748256     2.094808
 H    -1.277830     2.785300     3.182713
 C    -1.044021     3.934254     1.368500
 C    -1.025460     5.273487     2.043360
 H    -1.788338     5.947099     1.622221
 H    -1.210345     5.184876     3.123005
 H    -0.050067     5.769349     1.907705
