 102
scf done:    -3061.078649
 C    -1.382381     0.724499    -3.008016
 H    -1.170912     0.272556    -3.990208
 H    -2.417377     0.453839    -2.760539
 C    -1.259515     2.235899    -3.094736
 H    -0.237738     2.557366    -3.359545
 H    -1.936188     2.664564    -3.860457
 H    -1.520677     2.718075    -2.138363
Rh     0.000882     0.150068    -1.512165
 C    -2.432393     1.450119     0.647230
 C    -3.218131    -1.061524    -0.742694
 C    -1.611454    -1.231249     1.432261
 C     2.354837    -1.487770     0.619983
 C     3.295606     0.929130    -0.756207
 C     1.739410     1.242297     1.463992
 P     1.799951     0.139043    -0.017474
 P    -1.792730    -0.128272    -0.040799
 C     0.926888    -0.667261    -2.862876
 O     1.377043    -1.357180    -3.676801
 C    -1.829415     2.018642     1.769789
 H    -1.027635     1.480044     2.277205
 C    -3.408656     2.206145    -0.037237
 O    -3.918628     1.650432    -1.149350
 C    -4.831788     2.356957    -1.935473
 H    -5.764499     2.574396    -1.385400
 H    -5.064349     1.711614    -2.791794
 H    -4.401999     3.304016    -2.305782
 C    -2.214218     3.270151     2.255255
 H    -1.725975     3.678059     3.142255
 C    -3.794307     3.461891     0.440294
 H    -4.557647     4.037391    -0.083876
 C    -3.203981     3.985368     1.591869
 H    -3.519453     4.965532     1.957854
 C    -3.002629    -1.846456    -1.873042
 H    -2.018220    -1.794171    -2.345681
 C    -4.468982    -1.124173    -0.097734
 O    -4.613865    -0.371275     1.009640
 C    -5.814153    -0.406583     1.722462
 H    -6.665181    -0.056120     1.111863
 H    -5.688846     0.271284     2.576589
 H    -6.038325    -1.420365     2.098140
 C    -4.005976    -2.670508    -2.384025
 H    -3.817021    -3.275291    -3.273346
 C    -5.481116    -1.940712    -0.610837
 H    -6.455001    -1.988647    -0.122951
 C    -5.243675    -2.708288    -1.752046
 H    -6.042673    -3.344481    -2.141472
 C    -2.076064    -0.957692     2.719023
 H    -2.529531     0.011099     2.927882
 C    -1.094547    -2.519813     1.166686
 O    -0.701903    -2.739376    -0.093467
 C    -0.127770    -3.959437    -0.468612
 H     0.771538    -4.182036     0.127865
 H     0.162352    -3.845137    -1.520745
 H    -0.849886    -4.789794    -0.377423
 C    -1.996559    -1.908099     3.737633
 H    -2.358105    -1.664131     4.738788
 C    -1.035888    -3.483578     2.177931
 H    -0.632628    -4.473536     1.965771
 C    -1.477003    -3.169223     3.461248
 H    -1.419736    -3.926059     4.247722
 C     1.912821    -2.017757     1.831057
 H     1.215154    -1.448928     2.446976
 C     3.166191    -2.297731    -0.205886
 O     3.480917    -1.777561    -1.402446
 C     4.199249    -2.529668    -2.337010
 H     5.218559    -2.757527    -1.978889
 H     4.260545    -1.915256    -3.243045
 H     3.680593    -3.472454    -2.581798
 C     2.330635    -3.276891     2.271195
 H     1.971350    -3.659485     3.228303
 C     3.590807    -3.555274     0.229825
 H     4.236732    -4.166226    -0.401259
 C     3.184239    -4.033168     1.477726
 H     3.526582    -5.015202     1.813278
 C     3.145590     1.678490    -1.920381
 H     2.158364     1.698016    -2.390458
 C     4.560611     0.887339    -0.135268
 O     4.653743     0.156711     0.992491
 C     5.871021     0.077118     1.672864
 H     6.660161    -0.379426     1.049803
 H     5.697002    -0.563129     2.547247
 H     6.215102     1.068722     2.015682
 C     4.217923     2.373933    -2.481274
 H     4.075926     2.953645    -3.395679
 C     5.640542     1.574757    -0.696528
 H     6.623627     1.539510    -0.226350
 C     5.462847     2.315076    -1.866370
 H     6.315372     2.849523    -2.293286
 C     2.273913     0.954534     2.721044
 H     2.729983    -0.019070     2.894577
 C     1.229977     2.540359     1.237778
 O     0.773874     2.790368    -0.001488
 C     0.328282     4.079288    -0.331269
 H    -0.576892     4.346939     0.238994
 H     0.084639     4.054282    -1.398771
 H     1.116657     4.830963    -0.155346
 C     2.263420     1.895031     3.751098
 H     2.679476     1.637717     4.727381
 C     1.231537     3.492168     2.262372
 H     0.827750     4.488429     2.085559
 C     1.738203     3.161463     3.517328
 H     1.727917     3.910519     4.313074
