  84
scf done:    -1853.357440
 C     2.700167     2.306134    -1.060482
 H     2.644441     3.401493    -1.160125
 H     3.600268     2.115317    -0.456559
 C     2.830899     1.692573    -2.447798
 H     3.678640     2.117247    -3.019511
 H     2.987020     0.599999    -2.417421
 H     1.926201     1.862222    -3.056126
Rh     0.918163     1.526785    -0.243373
 C     1.965942    -1.960109    -0.944144
 C     3.871443    -0.308631     0.417930
 C     1.537698    -1.244770     1.806991
 C    -1.839528    -0.498391     1.123613
 C    -2.502518     2.206282     0.337646
 C    -1.847463     0.293177    -1.725446
 P    -1.307043     0.844411    -0.040725
 P     2.043746    -0.497439     0.196348
 C     0.569070     3.227456     0.332538
 O     0.410914     4.245895     0.855862
 H     2.725040    -2.705758    -0.655094
 H     2.260732    -1.568728    -1.931046
 C     0.590555    -2.606263    -1.006958
 H     0.383829    -3.109231    -0.047281
 H    -0.175274    -1.819359    -1.104194
 C     0.378576    -3.619074    -2.135387
 H     1.162431    -4.394574    -2.044739
 C    -0.978028    -4.296258    -1.971052
 H    -1.065453    -4.796733    -0.993850
 H    -1.151406    -5.051460    -2.752950
 H    -1.793499    -3.555759    -2.038273
 C     0.499636    -2.984440    -3.516482
 H     0.339497    -3.730369    -4.309956
 H     1.488199    -2.532727    -3.685661
 H    -0.255205    -2.191097    -3.649994
 H     4.270985    -0.057591    -0.578798
 H     4.004783     0.603445     1.021353
 C     4.655493    -1.462056     1.029186
 H     4.466413    -2.395624     0.472623
 H     4.304744    -1.647713     2.058007
 C     6.152532    -1.188072     1.054187
 H     6.547939    -1.040596     0.036583
 H     6.379868    -0.276384     1.629176
 H     6.708519    -2.020236     1.512508
 H     0.509431    -1.610777     1.676054
 H     2.160455    -2.132617     2.010485
 C     1.586354    -0.256890     2.964842
 H     1.033692     0.652564     2.669475
 H     2.626495     0.074132     3.127615
 C     1.024590    -0.832284     4.255361
 H    -0.029989    -1.130627     4.133233
 H     1.581951    -1.727561     4.575238
 H     1.069186    -0.100558     5.076205
 H    -1.219295    -0.353754     2.022453
 H    -1.476127    -1.428799     0.659897
 C    -3.296947    -0.634800     1.545498
 H    -3.574590     0.234000     2.164371
 H    -3.969767    -0.611299     0.672604
 C    -3.581414    -1.912776     2.343052
 H    -2.843939    -1.960943     3.167116
 C    -4.973531    -1.856246     2.961388
 H    -5.088011    -0.979687     3.617819
 H    -5.185997    -2.755726     3.559697
 H    -5.746515    -1.788680     2.177543
 C    -3.420204    -3.169414     1.492972
 H    -3.612177    -4.077024     2.085547
 H    -2.409297    -3.264745     1.068215
 H    -4.134742    -3.165086     0.652360
 H    -3.508182     1.795734     0.520141
 H    -2.159268     2.639848     1.292736
 C    -2.567936     3.288653    -0.735354
 H    -3.150121     2.912879    -1.593962
 H    -1.554386     3.490871    -1.121173
 C    -3.181139     4.582854    -0.225053
 H    -4.190345     4.417905     0.185992
 H    -2.559054     5.017856     0.572766
 H    -3.264828     5.331081    -1.027800
 H    -1.723959     1.189544    -2.356247
 H    -1.076689    -0.406817    -2.084254
 C    -3.231901    -0.309174    -1.919433
 H    -4.001119     0.377643    -1.526651
 H    -3.318086    -1.234613    -1.326017
 C    -3.523850    -0.620849    -3.379975
 H    -3.474986     0.288866    -3.999262
 H    -2.790217    -1.335280    -3.787346
 H    -4.524413    -1.061001    -3.508820
