 106
scf done:    -2465.504206
 C     2.159026    -3.486131    -0.359251
 H     2.118367    -4.371569    -1.012111
 H     3.167087    -3.067948    -0.495417
 C     1.952287    -3.906551     1.090715
 H     0.977731    -4.400315     1.239829
 H     2.724107    -4.623474     1.431373
 H     1.983950    -3.050238     1.787766
Rh     0.611772    -2.097753    -0.735730
 O     1.365450     0.236353     1.493458
 C     3.715466    -0.595943     0.382845
 C     1.918680     1.058317    -1.137910
 O    -1.248807     0.793078    -0.804075
 C    -2.807969    -1.405698    -1.415015
 C    -1.800219    -0.917167     1.270335
 P    -1.300904    -0.878557    -0.495508
 P     1.933061    -0.365665     0.018402
 C    -0.039912    -3.284579    -1.996619
 O    -0.384574    -3.953213    -2.867998
 C     1.516431     1.511128     1.956502
 C     0.639679     2.504884     1.515679
 H    -0.126653     2.230195     0.790752
 C     2.511016     1.808471     2.887288
 H     3.170248     1.013910     3.241241
 C     0.765862     3.821327     1.961686
 C    -0.146963     4.893594     1.440649
 H    -1.007138     4.464954     0.906771
 H    -0.524260     5.531790     2.254197
 H     0.386621     5.551832     0.734996
 C     2.635670     3.120648     3.343028
 H     3.413647     3.365946     4.070246
 C     1.781329     4.119212     2.881588
 H     1.896803     5.143688     3.245236
 H     4.085387     0.290187     0.924215
 H     3.778955    -1.451116     1.075675
 C     4.542956    -0.859873    -0.872833
 H     3.991408    -1.536509    -1.548508
 H     4.675633     0.080014    -1.433389
 C     5.907510    -1.460550    -0.566899
 H     5.767174    -2.414809    -0.027362
 H     6.453613    -0.798179     0.129524
 C     6.753759    -1.702961    -1.808427
 H     6.196002    -2.358900    -2.499793
 H     6.889038    -0.748043    -2.347011
 C     8.111042    -2.315516    -1.503348
 H     8.698417    -2.479814    -2.419403
 H     8.004537    -3.288759    -0.997771
 H     8.703747    -1.664664    -0.840288
 H     2.104379     0.596186    -2.122503
 H     0.863253     1.369983    -1.171665
 C     2.849523     2.246007    -0.891419
 H     2.980448     2.427889     0.185653
 H     3.857304     2.025248    -1.280408
 C     2.326184     3.526329    -1.528213
 H     1.290074     3.695052    -1.183257
 H     2.259399     3.399498    -2.624152
 C     3.165606     4.751474    -1.197729
 H     3.213764     4.859715    -0.099284
 H     4.206008     4.582804    -1.528027
 C     2.632447     6.032995    -1.817428
 H     3.252923     6.902982    -1.553813
 H     1.604728     6.242174    -1.477863
 H     2.603812     5.965308    -2.916875
 C    -2.322735     1.632253    -0.858991
 C    -2.844339     2.195583     0.306823
 H    -2.393093     1.940085     1.267762
 C    -2.866360     1.960446    -2.103518
 H    -2.428125     1.528633    -3.004917
 C    -3.935313     3.071220     0.253250
 C    -4.472111     3.679147     1.516507
 H    -4.679425     2.908956     2.275162
 H    -3.741793     4.377094     1.957600
 H    -5.400781     4.236855     1.333424
 C    -3.955642     2.823468    -2.161314
 H    -4.393055     3.076729    -3.130057
 C    -4.491862     3.369782    -0.994901
 H    -5.348176     4.046116    -1.054411
 H    -2.682134    -0.995866    -2.432414
 H    -2.698438    -2.496624    -1.530339
 C    -4.183758    -1.065057    -0.854387
 H    -4.348131    -1.625406     0.081984
 H    -4.241062     0.000822    -0.585113
 C    -5.306774    -1.378891    -1.832867
 H    -5.275078    -2.449270    -2.106600
 H    -5.129734    -0.823117    -2.771728
 C    -6.686560    -1.026895    -1.295130
 H    -6.859618    -1.576921    -0.352991
 H    -6.700062     0.043638    -1.023267
 C    -7.810773    -1.322366    -2.274482
 H    -8.794012    -1.055143    -1.858420
 H    -7.840806    -2.391844    -2.538208
 H    -7.681696    -0.757632    -3.211919
 H    -1.027056    -0.329684     1.792070
 H    -2.769596    -0.414561     1.414349
 C    -1.822575    -2.341515     1.812497
 H    -2.601333    -2.932784     1.297993
 H    -0.863172    -2.829391     1.563196
 C    -2.048221    -2.404324     3.315776
 H    -3.010294    -1.920944     3.567635
 H    -1.269063    -1.804560     3.819968
 C    -2.030959    -3.822913     3.867329
 H    -2.806579    -4.419977     3.355499
 H    -1.068900    -4.297014     3.604382
 C    -2.242133    -3.889472     5.371080
 H    -2.222307    -4.926420     5.739244
 H    -3.212314    -3.452860     5.658828
 H    -1.459105    -3.330791     5.908702
