  92
scf done:    -2606.260159
 C     1.205309    -0.876848     3.578799
 H     0.503843    -1.515327     4.145362
 H     1.936163    -1.574480     3.135584
 C     1.921103     0.075708     4.525194
 H     1.219866     0.720127     5.078333
 H     2.526178    -0.464869     5.276490
 H     2.610413     0.753226     3.994553
Rh    -0.081382    -0.056024     2.085423
 C     3.168714     0.389025     1.040199
 O     2.060659    -2.100622     0.614008
 O     1.388615    -0.177931    -0.930964
 C    -1.716828    -0.772170    -0.900663
 O    -3.132666     0.606678     1.002033
 O    -1.373896     1.879749    -0.326929
 P    -1.557689     0.424388     0.472052
 P     1.618539    -0.498800     0.695958
 C    -1.018219     0.855458     3.438518
 O    -1.517000     1.514801     4.231496
 H     3.885243     0.176817     0.230698
 H     3.572636    -0.055407     1.962510
 C     2.922069     1.895350     1.188951
 H     2.010061     2.191285     0.646823
 H     2.706472     2.124709     2.245855
 C     4.083092     2.755765     0.690462
 H     4.257568     2.481915    -0.367195
 C     3.704088     4.230184     0.731498
 H     2.803824     4.425452     0.128471
 H     4.515714     4.863560     0.341153
 H     3.493082     4.555202     1.763975
 C     5.365052     2.489391     1.470671
 H     6.197928     3.099502     1.088146
 H     5.674560     1.434539     1.408502
 H     5.232583     2.736164     2.537627
 C     2.945508    -2.604892    -0.299409
 C     4.311187    -2.635003    -0.015079
 H     4.665130    -2.256145     0.945236
 C     2.461863    -3.108700    -1.508014
 H     1.389337    -3.071338    -1.703467
 C     5.197016    -3.154363    -0.957964
 H     6.266666    -3.176271    -0.736578
 C     3.354589    -3.629905    -2.441017
 H     2.975865    -4.019945    -3.388584
 C     4.724010    -3.648043    -2.173614
 H     5.421651    -4.053600    -2.909440
 C     2.106446     0.664359    -1.741898
 C     3.291776     0.244483    -2.346528
 H     3.665821    -0.763938    -2.164246
 C     1.598891     1.942765    -1.982529
 H     0.669068     2.237414    -1.491822
 C     3.978652     1.124018    -3.183104
 H     4.908434     0.796050    -3.653885
 C     2.293979     2.810234    -2.821100
 H     1.897813     3.811946    -3.003737
 C     3.488043     2.407046    -3.420239
 H     4.033036     3.091203    -4.074194
 H    -0.850841    -0.557474    -1.546145
 H    -2.631376    -0.560885    -1.473338
 C    -1.655381    -2.217639    -0.420599
 H    -0.715889    -2.364708     0.139702
 H    -2.470114    -2.418142     0.295823
 C    -1.735887    -3.246266    -1.550049
 H    -0.954922    -2.987508    -2.291684
 C    -1.433378    -4.639818    -1.012109
 H    -0.442180    -4.680832    -0.533928
 H    -1.456338    -5.394825    -1.813251
 H    -2.179170    -4.934429    -0.255294
 C    -3.086528    -3.211833    -2.258077
 H    -3.137476    -3.971416    -3.053534
 H    -3.288979    -2.234678    -2.721831
 H    -3.904302    -3.411709    -1.545576
 C    -4.190150    -0.205401     0.697934
 C    -4.521705    -1.236453     1.579493
 H    -3.918648    -1.371468     2.479897
 C    -4.946351     0.008954    -0.455965
 H    -4.686694     0.833743    -1.122210
 C    -5.601524    -2.067651     1.292746
 H    -5.857490    -2.875469     1.982448
 C    -6.023522    -0.831068    -0.733864
 H    -6.611926    -0.664989    -1.639391
 C    -6.352142    -1.872620     0.132819
 H    -7.196857    -2.527655    -0.091216
 C    -2.303134     2.376205    -1.204369
 C    -3.327388     3.193805    -0.724186
 H    -3.380089     3.396759     0.346202
 C    -2.204714     2.088249    -2.566650
 H    -1.387221     1.460304    -2.924951
 C    -4.264967     3.712157    -1.614028
 H    -5.069865     4.347622    -1.237304
 C    -3.149559     2.611468    -3.448122
 H    -3.073117     2.385605    -4.514379
 C    -4.183280     3.419686    -2.976041
 H    -4.922112     3.826398    -3.669950
