  92
scf done:    -4444.154284
 C     0.898288    -3.972092     0.187565
 H     0.394421    -4.636784     0.909030
 H     0.417002    -4.176398    -0.785572
 C     2.380551    -4.310576     0.092185
 H     2.867987    -4.302595     1.079709
 H     2.551366    -5.310733    -0.347729
 H     2.935141    -3.587395    -0.529545
Rh     0.684307    -1.930991     0.737342
 C    -2.287543    -3.126218    -0.760466
 O    -2.009084    -0.482387    -0.274998
 O    -0.796409    -1.591499    -2.305008
 C    -0.545756     1.070405     2.265020
 O     2.043633     0.922693     1.791411
 O     0.502545     1.137857    -0.283876
 P     0.650360     0.285188     1.139329
 P    -1.053588    -1.797010    -0.664412
 C     1.420744    -2.389283     2.405974
 O     1.702824    -2.669982     3.481921
 H    -3.047073    -2.855185    -1.511365
 H    -1.748462    -4.005367    -1.148119
 C    -2.906248    -3.419903     0.599993
 H    -2.098027    -3.571262     1.336788
 H    -3.471174    -2.536969     0.945112
 C    -3.825660    -4.631937     0.582033
 H    -3.255619    -5.516061     0.243601
 H    -4.620292    -4.479421    -0.170871
 C    -4.459220    -4.924990     1.934669
 H    -3.660046    -5.068115     2.683137
 H    -5.024301    -4.036330     2.267767
 C    -5.374052    -6.138696     1.921832
 H    -5.816528    -6.324149     2.912135
 H    -4.826487    -7.048271     1.626963
 H    -6.202083    -6.007765     1.206650
 C    -3.249195    -0.163824    -0.745307
 C    -4.196217     0.259394     0.190763
 H    -3.926827     0.267276     1.248778
 C    -3.569723    -0.183013    -2.105596
 H    -2.823553    -0.509267    -2.830599
 C    -5.460252     0.662511    -0.225322
 H    -6.204766     0.995387     0.499506
 C    -4.838854     0.211870    -2.521233
 H    -5.100804     0.198849    -3.580413
 C    -5.778874     0.634681    -1.583067
Cl    -7.352706     1.131568    -2.105779
 C     0.403630    -1.067065    -2.722328
 C     1.555035    -1.851508    -2.680375
 H     1.491113    -2.880696    -2.326072
 C     0.460811     0.247837    -3.177705
 H    -0.445560     0.855325    -3.185738
 C     2.774310    -1.317301    -3.085530
 H     3.681248    -1.922734    -3.053708
 C     1.677937     0.789249    -3.579150
 H     1.741203     1.824366    -3.917849
 C     2.830051     0.004722    -3.522289
Cl     4.357513     0.688568    -3.979234
 H    -1.484975     1.080340     1.687372
 H    -0.697232     0.324145     3.063651
 C    -0.226900     2.439473     2.852720
 H     0.677587     2.364125     3.476609
 H     0.019350     3.152195     2.051837
 C    -1.385615     2.996367     3.667319
 H    -1.630840     2.301656     4.491622
 H    -2.288528     3.038573     3.030396
 C    -1.107406     4.382208     4.232452
 H    -0.199846     4.340735     4.860159
 H    -0.863403     5.065059     3.399445
 C    -2.264301     4.949153     5.038750
 H    -2.033676     5.951340     5.430319
 H    -2.507396     4.304080     5.898505
 H    -3.175119     5.034547     4.424290
 C     3.268374     0.441869     1.408462
 C     3.592021     0.244242     0.064246
 H     2.860019     0.458543    -0.716241
 C     4.202259     0.164792     2.405870
 H     3.922386     0.315353     3.449844
 C     4.856667    -0.225382    -0.280569
 H     5.123214    -0.360840    -1.329749
 C     5.465165    -0.306309     2.062904
 H     6.203355    -0.530872     2.834251
 C     5.786898    -0.499835     0.719156
Cl     7.360308    -1.086053     0.290031
 C     0.269265     2.477657    -0.401016
 C     1.324499     3.387553    -0.325208
 H     2.338625     3.022050    -0.155992
 C    -1.033845     2.920514    -0.631087
 H    -1.839270     2.188265    -0.705468
 C     1.069266     4.750194    -0.444186
 H     1.881427     5.475703    -0.377312
 C    -1.290909     4.282999    -0.749666
 H    -2.305923     4.644864    -0.920771
 C    -0.238619     5.192646    -0.645762
Cl    -0.558092     6.889946    -0.776807
