 104
scf done:    -2763.405693
 C     0.927378    -3.484140    -0.860760
 H     0.852351    -4.020826    -1.821075
 H     1.988444    -3.194352    -0.789172
 C     0.586688    -4.413429     0.297801
 H     1.267693    -5.284049     0.347541
 H     0.655435    -3.902455     1.272739
 H    -0.439352    -4.808061     0.226075
Rh    -0.393214    -1.800411    -0.910775
 C     2.134497    -1.021580     1.321824
 O     2.759163    -0.743330    -1.345515
 O     1.239192     1.006552    -0.279879
 C    -1.536477     1.419314    -1.875180
 O    -3.375151    -0.188542    -0.904418
 O    -1.600101     0.648887     0.781287
 P    -1.725689    -0.003033    -0.752000
 P     1.459791    -0.649803    -0.327324
 C    -1.654720    -2.997561    -1.631792
 O    -2.365873    -3.742027    -2.132098
 H     2.977161    -0.351188     1.553011
 H     2.541700    -2.043870     1.264541
 C     1.017070    -0.911446     2.354888
 H     0.509920     0.061130     2.244126
 H     0.238767    -1.661102     2.123169
 C     1.473712    -1.078437     3.804218
 H     2.237779    -0.301939     4.003595
 C     0.300926    -0.835369     4.747008
 H    -0.150339     0.155240     4.580835
 H     0.611698    -0.896044     5.801461
 H    -0.488437    -1.588630     4.587606
 C     2.111542    -2.439361     4.058087
 H     2.414854    -2.544871     5.111163
 H     3.007760    -2.600564     3.440101
 H     1.399943    -3.251311     3.832312
 C     4.048212    -1.115607    -1.048685
 C     4.504344    -2.349187    -1.515392
 H     3.818649    -2.987163    -2.075416
 C     4.912988    -0.273121    -0.352484
 H     4.569264     0.705044    -0.014193
 C     5.815210    -2.740075    -1.267263
 H     6.160326    -3.708886    -1.639245
 C     6.222903    -0.683544    -0.108834
 H     6.892205    -0.014701     0.439174
 C     6.699391    -1.919947    -0.553548
 C     8.106392    -2.364172    -0.276589
 H     8.124853    -3.216829     0.421724
 H     8.703424    -1.556181     0.169018
 H     8.613016    -2.691123    -1.197902
 C     2.236807     1.926126    -0.110553
 C     2.883563     2.450967    -1.230593
 H     2.604737     2.085092    -2.219949
 C     2.581760     2.366952     1.166365
 H     2.059985     1.961002     2.035152
 C     3.883411     3.402336    -1.063655
 H     4.392091     3.800437    -1.945904
 C     3.588684     3.319762     1.315959
 H     3.857874     3.656484     2.320724
 C     4.259242     3.852276     0.209832
 C     5.330341     4.891364     0.371945
 H     4.960195     5.889716     0.085847
 H     6.200351     4.674330    -0.266006
 H     5.678003     4.953421     1.412676
 H    -1.278944     0.956589    -2.843711
 H    -0.609814     1.897136    -1.521256
 C    -2.682853     2.408218    -2.039448
 H    -3.558151     1.871178    -2.436278
 H    -2.992423     2.807969    -1.061101
 C    -2.343953     3.585017    -2.958962
 H    -2.002952     3.171301    -3.927334
 C    -3.594134     4.418478    -3.216901
 H    -4.398696     3.811674    -3.660642
 H    -3.386671     5.257165    -3.899622
 H    -3.978151     4.841978    -2.273724
 C    -1.224659     4.454757    -2.394856
 H    -1.005575     5.301293    -3.064031
 H    -0.286721     3.895613    -2.256098
 H    -1.512907     4.865163    -1.412792
 C    -4.047945    -1.254317    -0.375363
 C    -5.157798    -1.725892    -1.077015
 H    -5.434787    -1.235269    -2.011864
 C    -3.669396    -1.864812     0.821341
 H    -2.808648    -1.489619     1.377686
 C    -5.875151    -2.809884    -0.586918
 H    -6.739934    -3.173699    -1.148958
 C    -4.397684    -2.956539     1.292586
 H    -4.088418    -3.432890     2.226962
 C    -5.506424    -3.453128     0.602843
 C    -6.268468    -4.647209     1.100136
 H    -7.355290    -4.474601     1.068846
 H    -5.994491    -4.896863     2.134927
 H    -6.063316    -5.535211     0.479594
 C    -2.112647     1.859626     1.163405
 C    -3.458881     1.983090     1.507777
 H    -4.106774     1.106065     1.461228
 C    -1.268966     2.967369     1.222185
 H    -0.220016     2.850283     0.947346
 C    -3.957077     3.227389     1.881986
 H    -5.016148     3.320714     2.138281
 C    -1.784203     4.204131     1.601281
 H    -1.117998     5.070887     1.632915
 C    -3.135268     4.361063     1.931947
 C    -3.681271     5.692854     2.359222
 H    -4.717044     5.832564     2.016290
 H    -3.076575     6.521740     1.963947
 H    -3.687163     5.785815     3.458315
