 100
scf done:    -2462.615792
 C    -2.196155     0.587727    -2.994262
 H    -1.786307     0.449577    -4.008563
 H    -3.116591    -0.014977    -2.947803
 C    -2.512808     2.057869    -2.775440
 H    -3.021722     2.505756    -3.649562
 H    -3.185135     2.207460    -1.915220
 H    -1.605682     2.663192    -2.598099
Rh    -0.699868    -0.026962    -1.645999
 C    -2.152226     2.290567     0.833579
 C    -3.825460     0.152225    -0.097351
 C    -1.715830    -0.474972     1.622124
 C     1.678012    -2.121367    -0.091075
 C     2.753884     0.057572    -1.714682
 C     1.880699     0.538928     0.950463
 P     1.370592    -0.360545    -0.568405
 P    -2.048884     0.583023     0.151732
 C    -0.384952    -1.426799    -2.790532
 O    -0.321717    -2.426286    -3.367889
 H    -2.749421     2.300423     1.760224
 H    -2.732169     2.845258     0.080709
 C    -0.804629     2.960156     1.052870
 H    -0.227780     2.406106     1.811897
 H    -0.207639     2.893545     0.125696
 C    -0.923104     4.427900     1.476434
 H    -1.593917     4.465351     2.356358
 C     0.431799     4.976148     1.903300
 H     0.863309     4.381146     2.721893
 H     0.353858     6.021779     2.239749
 H     1.144852     4.947187     1.063457
 C    -1.535184     5.296739     0.382355
 H    -1.609206     6.346688     0.705233
 H    -2.547145     4.969496     0.100627
 H    -0.912481     5.269936    -0.527654
 C    -4.884038     0.906033     0.422216
 H    -4.697844     1.821746     0.985135
 C    -4.111771    -1.016424    -0.808734
 H    -3.280591    -1.583743    -1.238738
 C    -6.197318     0.486681     0.223755
 H    -7.021827     1.079869     0.627120
 C    -5.424431    -1.455467    -1.007168
 C    -5.691271    -2.706790    -1.792387
 H    -5.400044    -2.578041    -2.847420
 H    -5.109956    -3.555712    -1.400716
 H    -6.755139    -2.981392    -1.767771
 C    -6.465923    -0.684554    -0.480967
 H    -7.500927    -1.004575    -0.629751
 C    -1.665389    -0.000182     2.935258
 H    -1.793509     1.061628     3.151152
 C    -1.537104    -1.843189     1.387945
 H    -1.558589    -2.204528     0.354634
 C    -1.424244    -0.885787     3.984383
 H    -1.367225    -0.508332     5.008461
 C    -1.324588    -2.748778     2.431512
 C    -1.208044    -4.218656     2.148732
 H    -0.622695    -4.408722     1.236375
 H    -0.732714    -4.757183     2.980458
 H    -2.204877    -4.662253     1.990872
 C    -1.254659    -2.246134     3.737456
 H    -1.070194    -2.931941     4.568893
 H     1.390170    -2.713451    -0.974735
 H     0.903486    -2.326004     0.665091
 C     3.057957    -2.525243     0.406433
 H     3.750007    -2.556681    -0.449835
 H     3.454825    -1.761612     1.098565
 C     3.079034    -3.877338     1.128591
 H     2.481483    -4.589390     0.528211
 C     4.501794    -4.416828     1.217523
 H     4.944065    -4.554697     0.218645
 H     4.533946    -5.386508     1.738413
 H     5.148346    -3.718806     1.775587
 C     2.452801    -3.777924     2.515768
 H     2.395729    -4.764078     3.002294
 H     1.434235    -3.364701     2.485613
 H     3.054609    -3.118346     3.162986
 C     2.463189     0.408512    -3.035782
 H     1.419795     0.435613    -3.361851
 C     4.094020     0.048045    -1.297827
 H     4.335377    -0.180211    -0.257899
 C     3.495082     0.723498    -3.920469
 H     3.258414     1.000582    -4.950577
 C     5.137781     0.354368    -2.172600
 C     6.566904     0.313645    -1.713676
 H     6.635476     0.247207    -0.618683
 H     7.092785    -0.559600    -2.133632
 H     7.119182     1.209172    -2.037253
 C     4.818110     0.691802    -3.495394
 H     5.620786     0.941736    -4.195340
 C     1.553176     0.038387     2.215684
 H     1.014548    -0.904208     2.321647
 C     2.560351     1.761348     0.863866
 H     2.815101     2.166137    -0.119098
 C     1.908865     0.749398     3.359860
 H     1.639530     0.352552     4.341699
 C     2.949516     2.469556     2.003445
 C     3.755044     3.730706     1.885662
 H     3.648134     4.186528     0.891261
 H     3.456679     4.475331     2.638105
 H     4.827248     3.523110     2.038866
 C     2.605280     1.950217     3.258120
 H     2.892509     2.492423     4.163528
