 112
scf done:    -2319.959106
 C    -1.596991     1.119773    -2.920867
 H    -1.594520     0.579320    -3.882179
 H    -2.648586     1.097604    -2.592152
 C    -1.181341     2.569317    -3.141797
 H    -0.179819     2.644021    -3.595274
 H    -1.879147     3.110461    -3.809654
 H    -1.144703     3.138414    -2.197057
Rh    -0.231917     0.293604    -1.514912
 C    -3.062389     1.580507     0.159699
 C    -3.355304    -1.034683    -1.043000
 C    -1.905593    -0.667071     1.576764
 C     2.244724    -1.891288    -0.392135
 C     3.011200     0.952576    -0.853432
 C     1.616327     0.072866     1.672285
 P     1.654610    -0.143836    -0.177168
 P    -2.112575     0.026318    -0.143913
 C     0.757909    -0.162558    -2.996048
 O     1.284029    -0.591724    -3.930860
 H    -3.997630     1.368492     0.703434
 H    -3.346668     1.947850    -0.837984
 C    -2.224984     2.620955     0.889892
 H    -1.887425     2.211224     1.857606
 H    -1.305526     2.805984     0.304737
 C    -2.923799     3.955646     1.157695
 H    -3.842861     3.740120     1.735718
 C    -2.030170     4.846890     2.013193
 H    -1.756720     4.354150     2.959826
 H    -2.524709     5.799346     2.258796
 H    -1.094333     5.085363     1.480436
 C    -3.331600     4.666197    -0.127809
 H    -3.822530     5.627315     0.089758
 H    -4.031191     4.067808    -0.730103
 H    -2.449298     4.875099    -0.755447
 H    -3.685509    -0.338331    -1.835116
 C    -4.607300    -1.474733    -0.285110
 H    -5.086823    -0.620782     0.219446
 H    -4.329878    -2.193938     0.504423
 C    -5.600871    -2.146912    -1.231028
 H    -6.490032    -2.478880    -0.670140
 H    -5.956566    -1.402621    -1.966310
 C    -4.966047    -3.320123    -1.969543
 H    -5.688488    -3.766817    -2.672011
 H    -4.714229    -4.111131    -1.239290
 C    -3.697660    -2.895025    -2.701593
 H    -3.961014    -2.189701    -3.510428
 H    -3.225503    -3.762831    -3.190099
 C    -2.704776    -2.219741    -1.762156
 H    -2.345274    -2.955400    -1.022329
 H    -1.814496    -1.863517    -2.305306
 H    -1.074919    -0.049505     1.960465
 C    -1.411688    -2.114480     1.530094
 H    -0.576058    -2.200293     0.815540
 H    -2.216251    -2.758010     1.136181
 C    -1.009985    -2.622109     2.910830
 H    -0.701680    -3.678556     2.850261
 H    -0.124865    -2.062633     3.262957
 C    -2.141482    -2.450057     3.917427
 H    -1.819925    -2.778954     4.918927
 H    -2.983968    -3.105684     3.631010
 C    -2.627013    -1.005704     3.960759
 H    -1.814282    -0.360858     4.342599
 H    -3.463050    -0.901425     4.671228
 C    -3.050846    -0.509092     2.579683
 H    -3.932901    -1.078096     2.248601
 H    -3.365359     0.543704     2.646973
 H     1.808896    -2.214696    -1.350544
 H     1.697256    -2.457044     0.380737
 C     3.727320    -2.237589    -0.378036
 H     4.237084    -1.665596    -1.170749
 H     4.197480    -1.931014     0.571341
 C     4.014973    -3.726417    -0.599889
 H     3.509463    -4.025404    -1.537366
 C     5.511599    -3.953371    -0.780154
 H     5.910835    -3.360698    -1.617926
 H     5.737543    -5.012441    -0.978966
 H     6.064446    -3.660703     0.128399
 C     3.467920    -4.595246     0.527871
 H     3.696445    -5.658336     0.355898
 H     2.375770    -4.508560     0.630390
 H     3.919682    -4.310894     1.493712
 H     3.240942     0.444196    -1.810778
 C     4.320318     1.100238    -0.074841
 H     4.736624     0.123664     0.205165
 H     4.122082     1.639547     0.867287
 C     5.347508     1.889100    -0.885087
 H     6.280798     1.993992    -0.307761
 H     5.606551     1.312960    -1.791979
 C     4.815140     3.258038    -1.292063
 H     5.554260     3.789139    -1.913786
 H     4.673935     3.873009    -0.384361
 C     3.483327     3.138299    -2.024135
 H     3.640939     2.633105    -2.994251
 H     3.079579     4.136920    -2.257415
 C     2.467316     2.341920    -1.214081
 H     2.226304     2.892750    -0.288524
 H     1.519298     2.233403    -1.766276
 H     0.733775    -0.536549     1.929508
 C     1.284542     1.518809     2.043277
 H     0.445023     1.878167     1.427934
 H     2.145018     2.165134     1.800052
 C     0.969240     1.658362     3.527904
 H     0.761233     2.712509     3.773737
 H     0.043741     1.098720     3.757305
 C     2.108731     1.119355     4.385028
 H     1.855962     1.190960     5.455316
 H     3.002826     1.751444     4.234228
 C     2.445930    -0.320483     4.014341
 H     1.586989    -0.968302     4.267350
 H     3.293327    -0.685178     4.617325
 C     2.763386    -0.471671     2.526632
 H     3.699277     0.062119     2.300987
 H     2.941410    -1.533234     2.296708
