  98
scf done:    -2760.502742
 C    -0.899750    -3.541736    -1.570893
 H    -1.241068    -3.947377    -2.535666
 H     0.183810    -3.762316    -1.549891
 C    -1.608345    -4.262980    -0.430268
 H    -1.438959    -5.356296    -0.450027
 H    -1.280275    -3.908677     0.562762
 H    -2.697991    -4.104139    -0.471032
Rh    -1.360333    -1.467536    -1.382036
 O     1.096402     0.211966     0.185368
 C     1.405429    -2.509338     0.687842
 C     1.916987    -1.300088    -1.978089
 O    -1.061189     1.797613    -1.834176
 C    -3.692547     1.216142    -1.313899
 C    -1.740538     1.307058     0.774425
 P    -1.953715     0.684828    -0.946835
 P     0.747283    -1.266568    -0.526519
 C    -2.542189    -1.707390    -2.788388
 O    -3.168646    -1.827684    -3.746168
 C     1.800997     0.524861     1.311587
 C     3.019287     1.186282     1.178923
 H     3.404953     1.383692     0.179190
 C     1.264216     0.267275     2.576242
 H     0.287727    -0.211595     2.671156
 C     3.746801     1.571776     2.308948
 C     5.057609     2.282659     2.140546
 H     5.596036     2.373952     3.094113
 H     5.703417     1.752911     1.423798
 H     4.903557     3.298612     1.741317
 C     1.989954     0.644813     3.703399
 H     1.580655     0.440463     4.695510
 C     3.222872     1.283933     3.574816
 H     3.782848     1.571229     4.468406
 H     0.834778    -3.419300     0.453270
 H     1.055947    -2.169022     1.673683
 C     2.875787    -2.804284     0.692057
 C     3.763941    -2.129563     1.539231
 H     3.384784    -1.384106     2.239702
 C     3.392246    -3.782433    -0.169673
 H     2.709088    -4.346277    -0.812173
 C     5.129578    -2.400446     1.498527
 H     5.803548    -1.857776     2.165757
 C     4.758144    -4.055123    -0.211187
 H     5.137765    -4.820714    -0.891978
 C     5.634950    -3.356200     0.617858
 H     6.706735    -3.565520     0.586219
 H     1.252000    -1.202320    -2.847210
 H     2.359913    -2.305599    -2.010733
 C     2.971225    -0.236850    -1.996916
 C     4.288698    -0.500896    -1.606551
 H     4.565658    -1.505757    -1.281356
 C     2.636029     1.060955    -2.406384
 H     1.607252     1.277893    -2.706303
 C     5.248546     0.510467    -1.623117
 H     6.273021     0.284605    -1.317042
 C     3.592998     2.072883    -2.417887
 H     3.309415     3.079401    -2.735484
 C     4.904883     1.801018    -2.024971
 H     5.657556     2.593089    -2.035820
 C    -0.769322     3.077172    -1.444819
 C     0.409961     3.309339    -0.738863
 H     1.045585     2.455543    -0.502590
 C    -1.605543     4.139422    -1.794837
 H    -2.506702     3.949075    -2.380438
 C     0.771187     4.602316    -0.349185
 C     2.046133     4.818865     0.413775
 H     2.914449     4.466522    -0.166041
 H     2.200985     5.880103     0.653006
 H     2.044480     4.247891     1.355862
 C    -1.250126     5.429977    -1.408515
 H    -1.895195     6.269541    -1.679021
 C    -0.077934     5.661595    -0.689060
 H     0.185909     6.680434    -0.393993
 H    -3.891418     0.948278    -2.362730
 H    -3.742322     2.311338    -1.217597
 C    -4.646557     0.547225    -0.367687
 C    -5.046996     1.192314     0.808842
 H    -4.727763     2.221887     0.992134
 C    -5.080053    -0.766719    -0.587222
 H    -4.795202    -1.282035    -1.505728
 C    -5.827940     0.536022     1.755937
 H    -6.115247     1.053493     2.673987
 C    -5.862560    -1.424860     0.358257
 H    -6.184312    -2.452076     0.170789
 C    -6.229504    -0.780402     1.538448
 H    -6.833352    -1.301067     2.285205
 H    -2.224927     2.292820     0.859506
 H    -0.659623     1.494004     0.862656
 C    -2.169702     0.411401     1.908741
 C    -2.385375    -0.964354     1.775346
 H    -2.304300    -1.435943     0.785202
 C    -2.307066     0.980752     3.182488
 H    -2.141038     2.054586     3.306991
 C    -2.723196    -1.746816     2.878746
 H    -2.895301    -2.817036     2.740981
 C    -2.643409     0.202438     4.286103
 H    -2.744957     0.670813     5.268333
 C    -2.851979    -1.169330     4.139299
 H    -3.119945    -1.782101     5.003258
