  88
scf done:    -2305.476724
 C     1.932453    -1.414470    -2.654389
 H     2.223289    -0.828595    -3.541318
 H     2.848591    -1.516424    -2.050994
 C     1.427379    -2.788219    -3.070936
 H     0.598690    -2.721881    -3.794421
 H     2.222864    -3.396749    -3.542128
 H     1.052640    -3.374792    -2.213156
Rh     0.386492    -0.541724    -1.515691
 C     1.530079     1.625198     0.998321
 C     2.201638    -1.141923     1.482206
 C     3.612214     0.420890    -0.473907
 C    -2.573801     1.224578    -0.660176
 C    -2.701353    -1.678204    -0.545657
 C    -1.456751    -0.276137     1.570715
 P    -1.554983    -0.263703    -0.260902
 P     1.910233     0.046293     0.116587
 C    -0.416871    -0.079989    -3.114233
 O    -0.830715     0.410014    -4.074192
 H     2.405092     1.892146     1.614218
 H     0.692934     1.408825     1.678595
 C     1.194239     2.760583     0.042590
 H     1.993973     2.849156    -0.710898
 H     0.284892     2.496817    -0.526125
 C     1.021279     4.127928     0.708996
 H     1.972560     4.363839     1.222848
 C     0.783053     5.198577    -0.349625
 H     1.595900     5.218968    -1.091834
 H     0.708921     6.201147     0.099425
 H    -0.157194     5.006476    -0.893616
 C    -0.087112     4.147561     1.755101
 H    -0.167340     5.139424     2.226319
 H     0.081260     3.411969     2.555766
 H    -1.064122     3.925633     1.293779
 C     2.135354    -2.504152     1.159033
 C     2.446834    -0.771038     2.808566
 C     2.561336    -3.095503     3.460583
 C     2.623474    -1.743322     3.792014
 C     2.318364    -3.475128     2.139857
 H     1.922344    -2.796527     0.126294
 H     2.264275    -4.533451     1.873633
 H     2.698975    -3.856104     4.233071
 H     2.805424    -1.440399     4.826064
 H     2.488141     0.283062     3.088791
 C     3.750592     1.061636    -1.712012
 C     4.755512     0.147195     0.283953
 C     6.143908     1.171397    -1.409237
 C     6.015333     0.518824    -0.184438
 C     5.008353     1.442475    -2.172300
 H     2.858383     1.232895    -2.320954
 H     5.103129     1.941218    -3.139882
 H     7.132202     1.460536    -1.774994
 H     6.902693     0.293254     0.412230
 H     4.664339    -0.367743     1.243309
 H    -2.561869     1.274346    -1.761438
 H    -1.962260     2.079041    -0.326973
 C    -4.000469     1.306330    -0.141753
 H    -4.575229     0.460557    -0.551590
 H    -4.021854     1.181406     0.955390
 C    -4.721561     2.609849    -0.500517
 H    -4.681217     2.719294    -1.600573
 C    -6.187463     2.527417    -0.090365
 H    -6.688159     1.665709    -0.558364
 H    -6.738328     3.435936    -0.378986
 H    -6.281925     2.414129     1.002731
 C    -4.054401     3.834873     0.116441
 H    -4.608518     4.753790    -0.129246
 H    -3.022644     3.974287    -0.240285
 H    -4.022781     3.752050     1.216524
 C    -2.539137    -2.477808    -1.682828
 C    -3.740929    -1.974220     0.348474
 C    -4.443439    -3.819762    -1.043470
 C    -4.606935    -3.035348     0.098952
 C    -3.406998    -3.540779    -1.931194
 H    -1.713917    -2.265358    -2.367375
 H    -3.264762    -4.157184    -2.821999
 H    -5.121762    -4.654634    -1.236008
 H    -5.412817    -3.254149     0.803813
 H    -3.866031    -1.377676     1.254917
 C    -1.047472    -1.463156     2.196202
 C    -1.672604     0.859156     2.359514
 C    -1.076354    -0.374260     4.351261
 C    -1.479612     0.811044     3.740746
 C    -0.864361    -1.513460     3.573770
 H    -0.865921    -2.357094     1.594176
 H    -0.537383    -2.445342     4.039668
 H    -0.926287    -0.411694     5.432799
 H    -1.651341     1.708431     4.340385
 H    -1.985681     1.798264     1.901211
