 120
scf done:    -3221.035250
 C     1.641882    -2.551106    -1.615291
 H     1.226015    -2.759424    -2.620390
 H     2.507008    -1.889513    -1.784061
 C     2.116865    -3.851632    -0.985404
 H     1.311628    -4.602216    -0.934597
 H     2.952590    -4.312214    -1.548180
 H     2.475366    -3.701543     0.045071
Rh     0.094205    -1.438970    -0.687443
 C     1.575721     1.206152     1.487852
 C     3.101787    -1.140942     0.869598
 C     2.698442     0.971584    -1.135417
 C    -1.643954     1.482733    -1.144436
 C    -3.393433    -0.753614    -0.822625
 C    -2.086541     0.245021     1.583750
 P    -1.772222    -0.100488    -0.205309
 P     1.811571    -0.044602     0.120456
 C    -0.844707    -2.996416    -0.609090
 O    -1.396785    -4.006097    -0.454170
 H     2.503802     1.173993     2.075601
 H     0.774935     0.802476     2.120032
 C     1.278511     2.640845     1.065245
 H     1.713748     2.858448     0.077265
 H     0.191772     2.780113     0.959880
 C     1.816260     3.682835     2.050352
 H     2.915241     3.557398     2.077914
 C     1.518544     5.090452     1.547998
 H     1.930307     5.249406     0.538936
 H     1.943584     5.858903     2.213068
 H     0.431023     5.265205     1.489465
 C     1.292392     3.476575     3.466886
 H     1.689918     4.238464     4.156029
 H     1.566045     2.488125     3.864169
 H     0.192653     3.540271     3.493117
 C     4.308573    -1.538811     0.263680
 O     4.608968    -0.992698    -0.930816
 C     5.692861    -1.468319    -1.670407
 H     5.682778    -0.914456    -2.618230
 H     6.656593    -1.283859    -1.162288
 H     5.600757    -2.548077    -1.880509
 C     2.755567    -1.758718     2.087251
 O     1.566904    -1.394583     2.607586
 C     1.077679    -2.033050     3.749683
 H     0.097794    -1.584351     3.955452
 H     1.735613    -1.874909     4.622685
 H     0.954785    -3.117823     3.585310
 C     3.588165    -2.701184     2.701836
 H     3.301121    -3.169152     3.642306
 C     5.152129    -2.476016     0.875845
 H     6.085378    -2.771991     0.398988
 C     4.785822    -3.045558     2.087954
 H     5.441660    -3.782118     2.557999
 C     3.878146     1.675375    -0.830818
 O     4.304872     1.574567     0.441862
 C     5.561489     2.074578     0.793943
 H     5.724558     1.794754     1.842484
 H     6.360925     1.630421     0.175916
 H     5.608594     3.174338     0.705916
 C     2.192332     1.064578    -2.443525
 O     1.042995     0.414827    -2.700837
 C     0.514851     0.400429    -3.996477
 H    -0.427292    -0.156207    -3.928161
 H     1.193699    -0.103864    -4.705637
 H     0.300425     1.419867    -4.362817
 C     2.865950     1.808793    -3.425743
 H     2.478637     1.869880    -4.441525
 C     4.554555     2.423134    -1.799141
 H     5.470042     2.961313    -1.556498
 C     4.036794     2.474846    -3.090339
 H     4.558907     3.056705    -3.854015
 H    -1.172497     1.140063    -2.077067
 H    -0.885154     2.084518    -0.629064
 C    -2.899270     2.271981    -1.465680
 H    -3.650949     1.589267    -1.895194
 H    -3.342466     2.669813    -0.539360
 C    -2.660809     3.411472    -2.461443
 H    -2.245064     2.957738    -3.381979
 C    -3.979588     4.082328    -2.827390
 H    -4.702475     3.354755    -3.228201
 H    -3.838588     4.871837    -3.582405
 H    -4.438252     4.549105    -1.939297
 C    -1.650044     4.437539    -1.959814
 H    -1.491184     5.235074    -2.702499
 H    -0.670377     3.986335    -1.742465
 H    -2.007643     4.918546    -1.033764
 C    -4.622025    -0.628911    -0.140384
 O    -4.649868     0.204084     0.916221
 C    -5.725487     0.182535     1.806914
 H    -5.439557     0.827143     2.648864
 H    -6.650996     0.575848     1.349839
 H    -5.920016    -0.835129     2.187687
 C    -3.400110    -1.471714    -2.034198
 O    -2.270577    -1.430344    -2.769386
 C    -1.984953    -2.491405    -3.644944
 H    -0.915465    -2.420583    -3.881919
 H    -2.572522    -2.420750    -4.577021
 H    -2.170604    -3.464738    -3.164094
 C    -4.534985    -2.168691    -2.467352
 H    -4.511120    -2.741105    -3.394075
 C    -5.761008    -1.324834    -0.563742
 H    -6.696808    -1.243242    -0.011812
 C    -5.699535    -2.102121    -1.714915
 H    -6.588477    -2.643931    -2.046729
 C    -2.273728    -0.895379     2.395007
 O    -2.348417    -2.062460     1.738919
 C    -2.520838    -3.261831     2.439999
 H    -2.498598    -4.057320     1.686776
 H    -1.704225    -3.430785     3.162268
 H    -3.486234    -3.281302     2.975524
 C    -2.132281     1.497371     2.218674
 O    -2.053637     2.599030     1.437912
 C    -2.401722     3.846290     1.967902
 H    -2.399956     4.551677     1.127145
 H    -1.676880     4.199531     2.720537
 H    -3.407750     3.825677     2.421283
 C    -2.274702     1.604535     3.610421
 H    -2.281972     2.581594     4.091177
 C    -2.427700    -0.798851     3.783300
 H    -2.576490    -1.691787     4.389197
 C    -2.412666     0.456999     4.379852
 H    -2.524758     0.543915     5.463179
