  86
scf done:    -3000.070531
 C    -1.264384     0.756416    -3.128715
 H    -1.425349     0.039009    -3.949543
 H    -2.255824     0.992991    -2.716658
 C    -0.603985     2.022948    -3.651780
 H     0.347078     1.815794    -4.168115
 H    -1.252207     2.559905    -4.371895
 H    -0.380175     2.738181    -2.840621
Rh     0.009702     0.071797    -1.604946
 C    -1.876967     1.336144     1.174302
 C    -3.473954    -0.127879    -0.723665
 C    -1.746311    -1.548513     0.888991
 C     1.863130    -1.401080     1.163590
 C     3.425017     0.115316    -0.708342
 C     1.757293     1.497387     1.024550
 P     1.721717    -0.012903    -0.019372
 P    -1.753371     0.008574    -0.083545
 C     0.962802    -0.834979    -2.898091
 O     1.460948    -1.572402    -3.632150
 C    -1.489858     1.193481     2.506795
 H    -1.172426     0.213153     2.866581
 C    -2.232246     2.621442     0.712036
 O    -2.473919     2.706512    -0.609277
 C    -2.870818     3.923932    -1.177795
 H    -3.826948     4.275669    -0.753911
 H    -2.998325     3.735341    -2.250474
 H    -2.104195     4.705864    -1.039545
 C    -1.498947     2.280293     3.382103
 H    -1.185645     2.148149     4.419384
 C    -2.289353     3.703380     1.592484
 H    -2.593348     4.689778     1.240970
 C    -1.917343     3.525367     2.925588
 H    -1.942177     4.379924     3.605689
 C    -4.576484     0.488935    -0.127005
 H    -4.437285     1.147657     0.733575
 C    -3.679109    -0.976913    -1.817257
 H    -2.816114    -1.454183    -2.290456
 C    -5.863394     0.270715    -0.613879
 H    -6.735653     0.745929    -0.161198
 C    -4.958687    -1.209145    -2.310212
 H    -5.133669    -1.866293    -3.163833
 C    -6.036420    -0.577271    -1.700602
 F    -7.265004    -0.788471    -2.170083
 C    -0.971338    -2.614916     0.423205
 H    -0.329762    -2.451936    -0.448674
 C    -2.596955    -1.753328     1.983782
 H    -3.249378    -0.948423     2.330333
 C    -1.017768    -3.856100     1.051160
 H    -0.417501    -4.697177     0.702702
 C    -2.633152    -2.980653     2.636458
 H    -3.280374    -3.154156     3.497997
 C    -1.835011    -4.015954     2.160858
 F    -1.863157    -5.193353     2.782956
 C     1.465904    -1.331498     2.499121
 H     1.123965    -0.377314     2.904231
 C     2.248366    -2.654520     0.639771
 O     2.496659    -2.670694    -0.680669
 C     2.878987    -3.857946    -1.319846
 H     3.847618    -4.226720    -0.941393
 H     2.970619    -3.613748    -2.384836
 H     2.117458    -4.647212    -1.196050
 C     1.495312    -2.458568     3.321046
 H     1.174131    -2.383928     4.361622
 C     2.325202    -3.775580     1.468743
 H     2.653174    -4.736497     1.071230
 C     1.943682    -3.670524     2.806622
 H     1.984975    -4.556177     3.444866
 C     3.603488     0.837912    -1.891794
 H     2.728707     1.243060    -2.408615
 C     4.547629    -0.405261    -0.056238
 H     4.427871    -0.972568     0.870294
 C     4.874826     1.037236    -2.423241
 H     5.027844     1.596257    -3.348007
 C     5.823987    -0.221408    -0.579618
 H     6.709493    -0.628900    -0.088256
 C     5.970065     0.500340    -1.758908
 F     7.189896     0.678123    -2.263241
 C     2.582640     1.643747     2.147045
 H     3.203890     0.810904     2.483827
 C     1.016729     2.598894     0.582987
 H     0.386646     2.494069    -0.306319
 C     2.630357     2.846579     2.843874
 H     3.258649     2.973545     3.727286
 C     1.072651     3.815567     1.255560
 H     0.496736     4.680538     0.925135
 C     1.867698     3.916702     2.388449
 F     1.905654     5.069485     3.054035
