  90
scf done:    -2380.226100
 C    -2.899212    -2.911812     0.527445
 H    -2.879782    -3.800466     1.176673
 H    -3.642036    -2.221354     0.950897
 C    -3.285923    -3.307791    -0.889493
 H    -4.245685    -3.858732    -0.913956
 H    -3.410998    -2.426461    -1.539104
 H    -2.535158    -3.965993    -1.359414
Rh    -1.000949    -1.993556     0.323012
 C    -1.642441     1.070439    -1.545017
 O    -3.713502    -0.110981    -0.187769
 O    -1.834134     1.079512     1.111222
 C     2.080941    -0.716336     1.369101
 O     2.157797    -2.359071    -0.708939
 O     1.302172     0.027028    -1.137319
 P     1.106750    -1.243518    -0.105034
 P    -2.084408    -0.001908    -0.094145
 C    -0.424387    -3.273566     1.529024
 O    -0.116569    -3.955526     2.405096
 H    -0.712099     0.614905    -1.909101
 H    -2.417633     0.898500    -2.305465
 C    -1.413509     2.530054    -1.291067
 C    -2.333666     3.506288    -1.685214
 H    -3.247010     3.213392    -2.210050
 C    -0.240141     2.937764    -0.646120
 H     0.487992     2.175844    -0.359280
 C    -2.083064     4.852815    -1.425939
 H    -2.804189     5.609776    -1.744511
 C     0.024582     4.281431    -0.374804
 C     1.280732     4.669020     0.350930
 H     2.120482     4.016220     0.070405
 H     1.567468     5.710279     0.144445
 H     1.148200     4.575396     1.442518
 C    -0.915675     5.239600    -0.772755
 H    -0.726011     6.298453    -0.575972
 C    -4.588924     1.019593    -0.277666
 H    -3.990907     1.944028    -0.203535
 C    -5.550647     0.962770     0.891366
 H    -5.006267     1.014451     1.842846
 H    -6.119283     0.020568     0.868761
 H    -6.260959     1.802116     0.849807
 C    -5.303949     0.970658    -1.613997
 H    -4.594881     1.007387    -2.453392
 H    -5.880944     0.037267    -1.699095
 H    -5.996721     1.819722    -1.714288
 C    -1.425982     0.688081     2.425410
 H    -0.791938    -0.213258     2.319609
 C    -2.625415     0.319427     3.272446
 H    -3.170399    -0.521671     2.819787
 H    -3.309216     1.176247     3.375477
 H    -2.301842     0.012277     4.278345
 C    -0.619121     1.839186     2.985503
 H     0.229506     2.070782     2.325469
 H    -1.240576     2.744869     3.058951
 H    -0.234157     1.593667     3.986388
 H     1.395274    -0.091294     1.959069
 H     2.226023    -1.649663     1.938578
 C     3.369469     0.005772     1.127500
 C     4.465236    -0.630421     0.532922
 H     4.381808    -1.678971     0.241618
 C     3.489090     1.353844     1.485894
 H     2.636666     1.854050     1.955008
 C     5.640438     0.079944     0.300001
 H     6.492504    -0.421621    -0.165735
 C     4.662839     2.079910     1.262676
 C     4.758847     3.530940     1.636045
 H     3.929848     3.835237     2.290100
 H     5.703543     3.749764     2.156467
 H     4.726627     4.172836     0.740245
 C     5.741411     1.421953     0.659706
 H     6.671097     1.967181     0.474557
 C     1.715234    -3.594434    -1.288017
 H     0.607409    -3.590738    -1.287779
 C     2.207962    -4.731029    -0.417119
 H     1.809724    -4.646660     0.603208
 H     3.307902    -4.722258    -0.363786
 H     1.888895    -5.699866    -0.829497
 C     2.231101    -3.678972    -2.709483
 H     1.846000    -2.853281    -3.323151
 H     3.331354    -3.635417    -2.722194
 H     1.918294    -4.625566    -3.174566
 C     2.247623     0.147753    -2.211679
 H     2.978318    -0.670762    -2.117596
 C     2.959521     1.479180    -2.098339
 H     3.683072     1.586636    -2.920402
 H     3.502952     1.556818    -1.148555
 H     2.237987     2.307983    -2.164214
 C     1.496662     0.010475    -3.523773
 H     0.913148    -0.921232    -3.550073
 H     0.802257     0.853552    -3.661823
 H     2.198009     0.003576    -4.371805
