  98
scf done:    -3157.218364
 C    -1.368892     1.342354    -3.296416
 H    -1.479040     0.752078    -4.223553
 H    -2.382533     1.396763    -2.861843
 C    -0.924813     2.757742    -3.644801
 H     0.057671     2.773353    -4.144450
 H    -1.640179     3.263388    -4.320452
 H    -0.841601     3.393437    -2.747811
Rh     0.022752     0.431427    -1.962667
 C    -2.583102     1.778403    -0.094326
 C    -3.145396    -0.868450    -1.350171
 C    -1.607215    -0.674294     1.100467
 C     1.467902    -1.743878     0.448362
 C     3.377141    -0.206836    -1.024477
 C     1.745335     1.200765     0.913055
 P     1.624877    -0.115039    -0.389486
 P    -1.830266     0.170132    -0.552235
 C     1.119492     0.199545    -3.430538
 O     1.742705    -0.061727    -4.363384
 C    -1.692882     2.855946    -0.046095
 H    -0.657509     2.684602    -0.349556
 C    -3.925758     2.003098     0.279152
 O    -4.763268     0.950839     0.243489
 C    -6.088835     1.100799     0.673953
 H    -6.138873     1.444947     1.720250
 H    -6.549084     0.107105     0.608931
 H    -6.649800     1.800627     0.030808
 C    -2.088578     4.125739     0.366983
 H    -1.363821     4.941475     0.394643
 C    -4.333014     3.281920     0.676902
 H    -5.369161     3.463778     0.961385
 C    -3.417065     4.331237     0.723290
 H    -3.756770     5.320420     1.039985
 H    -3.976047    -0.984882    -0.644544
 H    -3.514712    -0.278063    -2.201766
 C    -2.608525    -2.196737    -1.796291
 C    -1.752423    -2.298789    -2.902447
 H    -1.484766    -1.395131    -3.453240
 C    -2.933551    -3.366928    -1.102361
 H    -3.624162    -3.315457    -0.257538
 C    -1.214653    -3.524373    -3.284716
 H    -0.537978    -3.608164    -4.137125
 C    -2.406781    -4.602986    -1.471087
 H    -2.651594    -5.517108    -0.927580
 C    -1.541286    -4.660260    -2.553950
 F    -0.996939    -5.833214    -2.888349
 H    -1.399696    -1.728725     0.861360
 H    -0.674708    -0.268257     1.517022
 C    -2.722593    -0.531432     2.085557
 C    -3.689708    -1.530227     2.246258
 H    -3.598165    -2.458859     1.679423
 C    -2.840101     0.630909     2.860024
 H    -2.092300     1.421581     2.761907
 C    -4.759099    -1.372269     3.124192
 H    -5.515090    -2.148883     3.253954
 C    -3.902128     0.808053     3.741318
 H    -4.002150     1.715011     4.340235
 C    -4.856543    -0.195167     3.854522
 F    -5.888381    -0.023329     4.683143
 C     0.929521    -2.744667    -0.370214
 H     0.567564    -2.456509    -1.362244
 C     1.909042    -2.101705     1.740968
 O     2.435693    -1.133010     2.515159
 C     2.976821    -1.458248     3.766762
 H     2.205175    -1.832899     4.461362
 H     3.401621    -0.530510     4.170176
 H     3.783381    -2.204452     3.676958
 C     0.836604    -4.070390     0.048961
 H     0.427741    -4.827928    -0.620590
 C     1.788695    -3.426825     2.175816
 H     2.118596    -3.707749     3.175719
 C     1.263687    -4.401970     1.330310
 H     1.189793    -5.432385     1.686630
 H     3.342770    -0.934452    -1.849026
 H     3.579997     0.779772    -1.469496
 C     4.399922    -0.583416    -0.001983
 C     5.051505     0.392371     0.763024
 H     4.859134     1.449008     0.560876
 C     4.682075    -1.930550     0.260263
 H     4.191213    -2.707875    -0.330313
 C     5.937187     0.041452     1.778484
 H     6.450024     0.795915     2.378068
 C     5.565544    -2.298864     1.270841
 H     5.787637    -3.346539     1.481980
 C     6.175189    -1.304738     2.025409
 F     7.006866    -1.651745     3.010413
 H     0.737438     1.276202     1.358252
 H     2.413107     0.860336     1.711932
 C     2.181987     2.552906     0.408096
 C     2.961926     3.367803     1.240485
 H     3.264093     2.995560     2.223303
 C     1.819307     3.057888    -0.847532
 H     1.223951     2.428171    -1.528122
 C     3.358376     4.643358     0.847012
 H     3.964070     5.280207     1.494323
 C     2.206443     4.330723    -1.259008
 H     1.921317     4.718762    -2.238767
 C     2.971232     5.111810    -0.402807
 F     3.347062     6.331396    -0.785788
