 104
scf done:    -2763.261023
 C     1.798667    -1.323287    -2.935306
 H     1.916656    -0.910744    -3.950171
 H     2.781397    -1.273539    -2.447866
 C     1.309496    -2.761456    -2.998985
 H     0.384343    -2.861749    -3.589033
 H     2.056209    -3.437558    -3.461221
 H     1.102077    -3.169419    -1.993400
Rh     0.308457    -0.431487    -1.749270
 C     1.283736     1.709549     0.808571
 C     2.199118    -0.959762     1.307622
 C     3.458446     0.759448    -0.681856
 C    -2.503543     1.412602    -0.640279
 C    -2.891081    -1.460323    -1.022724
 C    -1.480780    -0.726569     1.285349
 P    -1.641731    -0.211713    -0.475341
 P     1.812572     0.177722    -0.082770
 C    -0.448842     0.206637    -3.296157
 O    -0.824719     0.813543    -4.206450
 H     2.067803     1.945930     1.547634
 H     0.359236     1.476374     1.358451
 C     1.064712     2.878981    -0.141512
 H     1.903117     2.936389    -0.854445
 H     0.170526     2.683366    -0.757689
 C     0.942281     4.240069     0.548505
 H     1.912877     4.443587     1.039900
 C     0.704076     5.331955    -0.487801
 H     1.487699     5.328596    -1.261138
 H     0.686458     6.331767    -0.026456
 H    -0.262911     5.181769    -0.996829
 C    -0.134074     4.267414     1.626733
 H    -0.210045     5.266000     2.085194
 H     0.073193     3.546051     2.430805
 H    -1.120304     4.018982     1.203047
 C     1.828892    -0.714698     2.627637
 H     1.305591     0.207454     2.880848
 C     2.869492    -2.162978     1.011810
 O     3.220345    -2.328251    -0.277722
 C     3.907996    -3.479811    -0.672805
 H     4.879329    -3.570429    -0.155554
 H     4.082329    -3.381028    -1.751084
 H     3.315382    -4.392902    -0.488809
 C     2.111623    -1.629481     3.642387
 H     1.802690    -1.415858     4.667536
 C     3.152640    -3.087084     2.020530
 H     3.673788    -4.016651     1.790091
 C     2.772222    -2.813034     3.335404
 H     2.997855    -3.539527     4.120010
 C     3.577452     1.125623    -2.023380
 H     2.699230     1.001498    -2.662502
 C     4.571248     0.950325     0.164693
 O     4.395370     0.679442     1.472591
 C     5.485005     0.690512     2.346784
 H     6.281388     0.001696     2.014982
 H     5.102946     0.350436     3.318118
 H     5.914071     1.701960     2.461548
 C     4.769983     1.629064    -2.543040
 H     4.833342     1.904782    -3.597524
 C     5.778673     1.428011    -0.356415
 H     6.645130     1.559690     0.292336
 C     5.872570     1.762069    -1.707094
 H     6.820406     2.140228    -2.098558
 H    -2.349947     1.638642    -1.709623
 H    -1.875050     2.120836    -0.083455
 C    -3.972784     1.565601    -0.289546
 H    -4.546014     0.757068    -0.769941
 H    -4.109454     1.438430     0.795218
 C    -4.576404     2.902102    -0.731503
 H    -4.449065     2.977513    -1.828028
 C    -6.071256     2.922838    -0.432955
 H    -6.588111     2.077122    -0.912866
 H    -6.542800     3.852440    -0.788141
 H    -6.253191     2.850716     0.652823
 C    -3.880675     4.103259    -0.101837
 H    -4.356092     5.046638    -0.412255
 H    -2.819430     4.162815    -0.384970
 H    -3.932223     4.052996     0.999355
 C    -2.699578    -2.130244    -2.233025
 H    -1.817860    -1.871661    -2.824661
 C    -4.010227    -1.816633    -0.233961
 O    -4.170826    -1.159187     0.928463
 C    -5.134679    -1.581279     1.847793
 H    -6.161227    -1.429602     1.469907
 H    -4.991536    -0.969239     2.747842
 H    -5.001778    -2.643300     2.116446
 C    -3.581512    -3.115317    -2.677014
 H    -3.403116    -3.618852    -3.629062
 C    -4.890373    -2.812593    -0.668928
 H    -5.752414    -3.088671    -0.061191
 C    -4.675113    -3.452757    -1.888894
 H    -5.374872    -4.225828    -2.216320
 C    -1.081001    -2.055583     1.456158
 H    -0.850713    -2.650208     0.566801
 C    -1.734446     0.044760     2.432402
 O    -2.070485     1.342461     2.244497
 C    -2.439343     2.120992     3.346479
 H    -3.307794     1.691432     3.876160
 H    -2.711073     3.109066     2.955280
 H    -1.608392     2.241622     4.063193
 C    -0.989582    -2.640337     2.715398
 H    -0.674524    -3.680375     2.814881
 C    -1.640509    -0.535435     3.703108
 H    -1.848504     0.055632     4.595156
 C    -1.282959    -1.875962     3.839109
 H    -1.214679    -2.312769     4.838257
