 102
scf done:    -2688.689723
 C    -2.484953    -2.581231    -1.632103
 H    -2.856670    -3.508027    -1.163885
 H    -3.377991    -1.939774    -1.721561
 C    -1.939277    -2.893598    -3.019205
 H    -1.082759    -3.586423    -2.979664
 H    -2.704154    -3.362926    -3.666415
 H    -1.594518    -1.989761    -3.548179
Rh    -0.955740    -1.680065    -0.454737
 C    -2.969015     0.929393    -1.708205
 C    -4.066339    -0.544944     0.499785
 C    -2.186012     1.420151     1.053509
 C     1.668219    -1.611094     1.919852
 C     2.383800    -1.009129    -0.805688
 C     1.183423     1.030422     0.776091
 P     1.003438    -0.754436     0.387155
 P    -2.454001     0.060452    -0.150329
 C    -0.389453    -3.406855    -0.142783
 O    -0.145595    -4.483633     0.192222
 H    -3.476881     0.139804    -2.286818
 H    -3.725219     1.692884    -1.475469
 C    -1.856922     1.526415    -2.527977
 C    -1.953416     2.849555    -2.976468
 H    -2.824390     3.450702    -2.700478
 C    -0.740037     0.773606    -2.906525
 H    -0.648391    -0.260671    -2.547606
 C    -0.960272     3.395347    -3.785685
 H    -1.051024     4.426411    -4.136801
 C     0.265695     1.303519    -3.723699
 C     1.460956     0.479326    -4.101418
 H     1.936001     0.858053    -5.017404
 H     2.222519     0.487421    -3.303350
 H     1.189480    -0.573687    -4.258720
 C     0.140052     2.627785    -4.158936
 H     0.913067     3.058458    -4.801289
 C    -5.189198     0.291344     0.550408
 H    -5.133665     1.319325     0.184092
 C    -4.149347    -1.835921     1.020825
 H    -3.256045    -2.467376     0.978004
 C    -6.377691    -0.181908     1.094426
 H    -7.255931     0.467313     1.131851
 C    -5.338608    -2.324094     1.577772
 C    -5.399819    -3.724730     2.114057
 H    -5.250054    -4.460857     1.308031
 H    -4.608512    -3.901234     2.859017
 H    -6.368514    -3.935330     2.588455
 C    -6.451524    -1.479983     1.601999
 H    -7.390988    -1.841664     2.029370
 C    -2.286312     1.111194     2.417134
 H    -2.479347     0.081390     2.729123
 C    -1.940253     2.739244     0.670531
 H    -1.825913     2.989160    -0.385529
 C    -2.174737     2.119499     3.367250
 H    -2.266239     1.877664     4.429120
 C    -1.827280     3.763934     1.618312
 C    -1.599527     5.179058     1.174352
 H    -2.553849     5.674570     0.928675
 H    -1.112545     5.775336     1.959273
 H    -0.968626     5.216045     0.274415
 C    -1.955449     3.438164     2.970716
 H    -1.872973     4.226404     3.724352
 H     1.097811    -1.213044     2.772285
 H     1.352047    -2.656481     1.798222
 C     3.149146    -1.531370     2.122769
 C     3.975879    -2.510457     1.556372
 H     3.525994    -3.348326     1.017772
 C     3.748392    -0.460828     2.793830
 H     3.118938     0.312676     3.238666
 C     5.359252    -2.403334     1.647127
 H     5.993151    -3.168147     1.192019
 C     5.138508    -0.334074     2.890931
 C     5.743875     0.825180     3.629048
 H     5.168375     1.748508     3.464845
 H     5.757438     0.638616     4.715971
 H     6.781676     1.006750     3.314624
 C     5.939360    -1.318667     2.303008
 H     7.028259    -1.235997     2.364061
 C     2.276646    -2.011158    -1.776822
 H     1.342274    -2.568803    -1.870804
 C     3.574765    -0.279890    -0.711518
 H     3.674198     0.495277     0.051498
 C     3.348608    -2.275417    -2.625995
 H     3.258111    -3.055219    -3.386060
 C     4.657923    -0.532638    -1.557683
 C     5.936165     0.235969    -1.391776
 H     5.744277     1.314168    -1.283117
 H     6.462934    -0.091844    -0.480579
 H     6.612625     0.090518    -2.245827
 C     4.527787    -1.541899    -2.518649
 H     5.363747    -1.754030    -3.191219
 C     1.085530     1.526189     2.080644
 H     0.874186     0.858608     2.916720
 C     1.381123     1.935688    -0.272305
 H     1.421648     1.569383    -1.299788
 C     1.259303     2.884708     2.326182
 H     1.194147     3.260110     3.349779
 C     1.547159     3.305133    -0.042448
 C     1.737829     4.247762    -1.194335
 H     2.078411     5.236530    -0.855544
 H     2.470522     3.857846    -1.916880
 H     0.793916     4.379780    -1.747481
 C     1.510069     3.765072     1.276908
 H     1.656810     4.829017     1.481548
