 102
scf done:    -3061.305021
 C     1.216973    -0.846074    -3.835557
 H     0.967233    -0.365443    -4.793411
 H     2.188408    -0.419892    -3.539146
 C     1.322171    -2.354683    -4.008622
 H     2.074124    -2.624217    -4.773629
 H     1.624741    -2.851161    -3.073076
 H     0.366997    -2.801033    -4.331397
Rh    -0.301787    -0.494857    -2.381732
 O     2.335777    -1.723985    -0.813653
 O     2.645946     0.678464    -1.257480
 O     1.105209    -0.030536     0.634874
 O    -2.004898     0.798900     0.257016
 O    -3.443750    -0.257642    -1.545788
 O    -2.214165    -1.710122     0.093168
 P    -1.954624    -0.391370    -0.873020
 P     1.423764    -0.378029    -0.943832
 C    -1.374162     0.052532    -3.823516
 O    -1.977455     0.485030    -4.693903
 C     3.313957    -1.887046     0.142967
 C     4.593344    -1.392227    -0.083034
 H     4.794865    -0.867082    -1.018117
 C     2.989939    -2.553897     1.323140
 H     1.971200    -2.915266     1.468383
 C     5.588919    -1.548317     0.889090
 C     6.968989    -1.010610     0.644820
 H     7.470744    -1.563287    -0.165726
 H     6.936152     0.047103     0.341003
 H     7.597208    -1.088564     1.542921
 C     3.980019    -2.716384     2.287447
 H     3.743345    -3.231432     3.221567
 C     5.265144    -2.215136     2.076002
 H     6.030928    -2.342421     2.845471
 C     2.523036     2.043942    -1.393595
 C     3.509450     2.828139    -0.798813
 H     4.313662     2.337680    -0.248478
 C     1.473757     2.634395    -2.090618
 H     0.711539     2.001492    -2.555823
 C     3.422509     4.211728    -0.879120
 H     4.191248     4.821595    -0.395916
 C     1.401226     4.025340    -2.153719
 H     0.567232     4.485974    -2.690318
 C     2.362887     4.839436    -1.548990
 C     2.280176     6.336967    -1.620444
 H     2.376214     6.792273    -0.622235
 H     1.324266     6.666752    -2.050969
 H     3.087713     6.753517    -2.244581
 C     1.566715     1.067152     1.337583
 C     0.830982     2.249829     1.292787
 H    -0.083917     2.283144     0.699532
 C     2.731002     0.979686     2.090713
 H     3.288685     0.042991     2.121986
 C     1.291216     3.362802     1.983555
 H     0.719588     4.293178     1.932700
 C     3.175203     2.107746     2.780494
 H     4.096583     2.042380     3.365758
 C     2.476017     3.317330     2.730787
 C     2.982117     4.543167     3.433474
 H     3.326179     5.297798     2.706752
 H     3.826629     4.310123     4.097166
 H     2.193296     5.015195     4.039280
 C    -2.333914     0.725466     1.595890
 C    -1.487449     0.066307     2.480243
 H    -0.594938    -0.423290     2.090077
 C    -3.475723     1.382874     2.047072
 H    -4.127042     1.888113     1.332890
 C    -1.769582     0.047775     3.849610
 C    -0.821163    -0.634798     4.792303
 H    -0.584928    -1.655992     4.454201
 H     0.134733    -0.088433     4.844497
 H    -1.232726    -0.696067     5.809442
 C    -3.761180     1.361508     3.409113
 H    -4.657174     1.867847     3.776182
 C    -2.920531     0.699729     4.303846
 H    -3.157427     0.693869     5.370972
 C    -4.595420     0.069716    -0.866475
 C    -5.192139     1.296712    -1.140688
 H    -4.726215     1.958875    -1.872602
 C    -5.165819    -0.801549     0.060163
 H    -4.682277    -1.756312     0.266785
 C    -6.356903     1.659463    -0.468174
 H    -6.818259     2.627280    -0.682900
 C    -6.325054    -0.419864     0.727052
 H    -6.759317    -1.099513     1.465373
 C    -6.941328     0.813728     0.481395
 C    -8.200723     1.200255     1.201360
 H    -8.415806     2.272444     1.090566
 H    -8.133123     0.975370     2.276645
 H    -9.069138     0.645964     0.808558
 C    -1.339367    -2.754454     0.249315
 C    -1.167259    -3.267355     1.533721
 H    -1.717940    -2.813510     2.359399
 C    -0.670706    -3.332094    -0.829865
 H    -0.830257    -2.944891    -1.842503
 C    -0.310710    -4.346878     1.733349
 H    -0.186336    -4.746805     2.743714
 C     0.197622    -4.397272    -0.607897
 H     0.730614    -4.827393    -1.459651
 C     0.398635    -4.924416     0.672156
 C     1.375011    -6.040086     0.904527
 H     2.396136    -5.643188     1.036901
 H     1.404689    -6.734568     0.052403
 H     1.124592    -6.616050     1.807087
