  98
scf done:    -2609.177628
 C    -0.581141    -4.184496    -0.427981
 H    -0.141419    -5.122874    -0.058315
 H    -1.547296    -4.094342     0.096248
 C    -0.788139    -4.252192    -1.933958
 H    -1.424156    -5.110281    -2.223244
 H    -1.279503    -3.344925    -2.320710
 H     0.165869    -4.369358    -2.473629
Rh     0.703950    -2.516606    -0.107430
 O    -1.150063     0.253645    -0.214989
 O    -2.545647    -1.730111    -0.766598
 O    -1.872389    -1.428344     1.605764
 O     1.576581     0.289872     1.330993
 O     3.599971    -0.872296     0.552942
 O     2.258496     0.318862    -1.130385
 P     2.036680    -0.712609     0.111057
 P    -1.233331    -1.368455     0.110979
 C     1.945089    -3.780448     0.485935
 O     2.621998    -4.564638     0.979100
 C    -2.220032     1.110277    -0.270311
 C    -2.686481     1.515523    -1.516913
 H    -2.223946     1.089714    -2.409514
 C    -2.779851     1.620194     0.901189
 H    -2.401642     1.288719     1.866848
 C    -3.722696     2.449282    -1.621637
 C    -4.215236     2.875468    -2.973427
 H    -3.408217     3.340736    -3.561147
 H    -4.580299     2.011017    -3.550188
 H    -5.037606     3.599545    -2.893705
 C    -3.813861     2.547172     0.802996
 H    -4.258595     2.954664     1.713989
 C    -4.280981     2.960018    -0.444266
 H    -5.091299     3.690672    -0.507312
 C    -3.742293    -2.359285    -0.312549
 H    -3.879686    -3.257050    -0.937437
 H    -3.615605    -2.678713     0.731739
 C    -4.921618    -1.420783    -0.441788
 H    -5.796167    -1.916506     0.016317
 H    -4.721171    -0.519504     0.163178
 C    -5.243463    -1.024821    -1.875243
 H    -5.462387    -1.935039    -2.461723
 H    -4.342048    -0.580731    -2.327656
 C    -6.406054    -0.051757    -1.974123
 H    -7.326112    -0.479844    -1.544009
 H    -6.186560     0.878162    -1.425993
 H    -6.623937     0.217429    -3.019075
 C    -1.088100    -1.801205     2.746424
 H    -1.678030    -2.556331     3.290320
 H    -0.156090    -2.277083     2.392255
 C    -0.792217    -0.598097     3.611383
 H    -0.067723    -0.904061     4.385887
 H    -0.263832     0.144337     2.991062
 C    -2.023587     0.016312     4.264496
 H    -2.424171    -0.684170     5.018147
 H    -2.820434     0.116861     3.508193
 C    -1.743524     1.365845     4.905448
 H    -0.960106     1.287934     5.676172
 H    -1.387361     2.094016     4.157900
 H    -2.641285     1.786282     5.383613
 C     1.883263     1.628089     1.403649
 C     0.827024     2.532086     1.325705
 H    -0.180262     2.142867     1.181424
 C     3.193662     2.071270     1.570929
 H     4.001414     1.342306     1.633418
 C     1.056248     3.907979     1.405678
 C    -0.095661     4.869363     1.346308
 H     0.194842     5.818456     0.872561
 H    -0.943377     4.446351     0.787401
 H    -0.459420     5.107841     2.359984
 C     3.426933     3.443625     1.638556
 H     4.450506     3.807359     1.757916
 C     2.374979     4.354233     1.554488
 H     2.579097     5.426969     1.604987
 C     4.524989    -1.641741    -0.205657
 H     5.359069    -1.842416     0.484195
 H     4.075661    -2.614837    -0.470194
 C     5.023657    -0.937728    -1.455292
 H     5.806607    -1.579334    -1.897700
 H     4.211350    -0.887887    -2.198597
 C     5.565786     0.461977    -1.208797
 H     6.400131     0.409926    -0.486324
 H     4.776530     1.061266    -0.729599
 C     6.022012     1.153088    -2.482676
 H     6.818574     0.586605    -2.992220
 H     5.185843     1.258785    -3.192926
 H     6.409349     2.162744    -2.278299
 C     1.386462     0.476125    -2.240161
 H     1.979803     0.250199    -3.142786
 H     0.564101    -0.257619    -2.184203
 C     0.853752     1.890982    -2.292040
 H     0.237783     1.986525    -3.204362
 H     0.174839     2.043815    -1.438834
 C     1.937024     2.959570    -2.272511
 H     2.638431     2.792074    -3.110024
 H     2.527588     2.842182    -1.349655
 C     1.370400     4.367510    -2.341658
 H     0.808976     4.534089    -3.275751
 H     0.680411     4.552446    -1.503566
 H     2.165357     5.126710    -2.289016
