 100
scf done:    -2462.596574
 C    -1.913927     1.337912    -2.443317
 H    -1.707025     1.114979    -3.504100
 H    -2.780357     0.705894    -2.199325
 C    -2.278571     2.809942    -2.294164
 H    -1.490056     3.470210    -2.688837
 H    -3.212612     3.068990    -2.829154
 H    -2.423448     3.101000    -1.239570
Rh    -0.212563     0.846642    -1.253611
 C    -3.140294     0.654913     0.793168
 C    -2.598948    -1.682052    -0.941770
 C    -1.213774    -1.347007     1.541709
 C     3.144906     0.266827    -1.407765
 C     2.230148     2.367850     0.561217
 C     2.229554    -0.468464     1.252526
 P     1.850526     0.688908    -0.121620
 P    -1.767487    -0.380687     0.065314
 C     0.649270     1.710860    -2.628774
 O     1.125548     2.237360    -3.535150
 H    -3.476704     0.150109     1.711980
 H    -2.661703     1.593696     1.109120
 C    -4.337416     0.980336    -0.093380
 H    -4.042633     1.700081    -0.867405
 H    -4.678206     0.084369    -0.636660
 C    -5.495352     1.559982     0.708477
 H    -5.148542     2.451646     1.262325
 H    -5.811217     0.835023     1.482169
 C    -6.693441     1.934021    -0.152789
 H    -6.371261     2.658099    -0.921551
 H    -7.029260     1.040981    -0.709190
 C    -7.853889     2.510011     0.642107
 H    -8.703154     2.769618    -0.007918
 H    -7.555052     3.424534     1.179462
 H    -8.218609     1.792359     1.394837
 C    -2.004523    -1.929595    -2.187062
 H    -1.146260    -1.310536    -2.474001
 C    -3.715009    -2.453477    -0.538264
 C    -4.415534    -2.297068     0.782513
 H    -5.123830    -1.454077     0.765715
 H    -3.713197    -2.124422     1.608186
 H    -4.993742    -3.201528     1.016529
 C    -2.490889    -2.911201    -3.044778
 H    -2.008264    -3.081130    -4.009762
 C    -4.190498    -3.430816    -1.422185
 H    -5.051868    -4.032621    -1.119289
 C    -3.596642    -3.662469    -2.659884
 H    -3.998404    -4.435914    -3.319182
 C    -1.208364    -2.748358     1.499596
 H    -1.511255    -3.258617     0.583752
 C    -0.778652    -0.694913     2.715360
 C    -0.683110     0.798333     2.824827
 H    -1.635148     1.245053     3.151809
 H    -0.413053     1.257808     1.862560
 H     0.083821     1.083002     3.557745
 C    -0.844970    -3.505596     2.608007
 H    -0.862012    -4.596512     2.549542
 C    -0.420974    -1.475825     3.820417
 H    -0.083803    -0.970266     4.729020
 C    -0.465339    -2.864568     3.783174
 H    -0.179489    -3.444144     4.664081
 H     2.555279    -0.299869    -2.145773
 H     3.376933     1.223628    -1.904283
 C     4.412117    -0.517668    -1.084140
 H     5.196172     0.147194    -0.698353
 H     4.222162    -1.245470    -0.278253
 C     4.953646    -1.253608    -2.303925
 H     5.134236    -0.532203    -3.121551
 H     4.181165    -1.946141    -2.686997
 C     6.230782    -2.031765    -2.020962
 H     7.001807    -1.336560    -1.643949
 H     6.043429    -2.742217    -1.196159
 C     6.763910    -2.779869    -3.232032
 H     7.686129    -3.332266    -2.996141
 H     6.992124    -2.089048    -4.059628
 H     6.026937    -3.507958    -3.607723
 C     1.107977     3.211377     0.607666
 H     0.163616     2.821863     0.204209
 C     3.471195     2.862761     1.021914
 C     4.749403     2.081212     0.969322
 H     4.600418     1.017621     1.192081
 H     5.479856     2.482417     1.685743
 H     5.202870     2.151484    -0.032369
 C     1.177505     4.505826     1.111596
 H     0.283576     5.133236     1.130629
 C     3.520526     4.168307     1.529023
 H     4.479033     4.550248     1.891440
 C     2.396005     4.986249     1.580287
 H     2.476765     5.999352     1.982051
 C     2.632567    -0.005613     2.511256
 H     2.691623     1.069275     2.693711
 C     2.102782    -1.858654     1.031429
 C     1.631943    -2.417910    -0.278664
 H     2.460496    -2.513426    -0.999420
 H     0.872242    -1.767088    -0.744609
 H     1.197498    -3.417310    -0.142254
 C     2.964762    -0.891445     3.531819
 H     3.286448    -0.507122     4.502744
 C     2.444542    -2.730291     2.070842
 H     2.347584    -3.806238     1.903859
 C     2.885987    -2.262177     3.304232
 H     3.146816    -2.970026     4.094615
