  90
scf done:    -3300.853245
 C    -1.022878     3.099777    -1.761959
 H    -1.227824     3.999414    -1.161046
 H    -0.005487     3.238258    -2.166037
 C    -2.019160     2.970183    -2.904736
 H    -3.057714     2.904318    -2.542766
 H    -1.966694     3.831624    -3.596696
 H    -1.838900     2.069151    -3.515251
Rh    -1.213332     1.334840    -0.595324
 C     1.804844     0.893635    -2.436411
 O     1.835066     2.433124    -0.254322
 O     1.562205    -0.105256     0.102812
 C    -0.804350    -0.890899     2.123156
 O    -3.035857    -1.073560     0.781115
 O    -0.951764    -1.933897    -0.485507
 P    -1.449565    -0.658768     0.433126
 P     0.988309     1.139680    -0.839405
 C    -2.629361     2.203159     0.296139
 O    -3.337350     2.796489     0.976912
 C     0.950293     0.475191    -3.460217
 H    -0.117702     0.385579    -3.234791
 C     3.186921     1.024049    -2.697834
 O     3.964747     1.424834    -1.686588
 C     5.357643     1.428368    -1.837331
 H     5.736573     0.427032    -2.104199
 H     5.770870     1.716048    -0.863091
 H     5.684832     2.158214    -2.597709
 C     1.433218     0.174003    -4.731279
 H     0.751142    -0.149585    -5.519253
 C     3.672172     0.717853    -3.975124
 H     4.735932     0.807744    -4.195023
 C     2.797412     0.299283    -4.976797
 H     3.198321     0.069865    -5.967290
 C     1.382634     3.143692     0.827011
 C     1.437473     4.534329     0.753490
 H     1.811683     4.997482    -0.160750
 C     0.893097     2.517054     1.975815
 H     0.842201     1.429041     2.033006
 C     1.006629     5.306204     1.828620
 H     1.035990     6.396634     1.794218
 C     0.455117     3.287537     3.050011
 H     0.061048     2.816100     3.951604
 C     0.516523     4.671914     2.964454
 F     0.098681     5.409890     3.994629
 C     2.837811    -0.575532     0.188283
 C     3.687140    -0.098043     1.185863
 H     3.333105     0.685527     1.857681
 C     3.262413    -1.575913    -0.685578
 H     2.571659    -1.939194    -1.447619
 C     4.972314    -0.620552     1.308245
 H     5.659951    -0.266959     2.078798
 C     4.548568    -2.096774    -0.570670
 H     4.908831    -2.880037    -1.240168
 C     5.388485    -1.610872     0.425200
 F     6.621906    -2.107249     0.536575
 C    -1.427450    -0.079940     3.079963
 H    -2.297071     0.512310     2.784036
 C     0.331529    -1.639623     2.500123
 O     0.902063    -2.419998     1.575023
 C     1.908565    -3.325185     1.941646
 H     2.832318    -2.804875     2.246775
 H     2.118248    -3.924695     1.047805
 H     1.572016    -3.992721     2.752862
 C    -0.958711    -0.000228     4.387442
 H    -1.468167     0.633732     5.115529
 C     0.810182    -1.546655     3.814832
 H     1.691627    -2.113732     4.113142
 C     0.170230    -0.732963     4.745120
 H     0.564067    -0.675155     5.762692
 C    -4.044433    -0.689495    -0.061853
 C    -5.218647    -0.202178     0.510335
 H    -5.290273    -0.141849     1.597486
 C    -3.916688    -0.766848    -1.450947
 H    -3.001074    -1.165069    -1.892021
 C    -6.268874     0.213097    -0.302154
 H    -7.196061     0.602645     0.121485
 C    -4.962094    -0.340622    -2.266770
 H    -4.884842    -0.383068    -3.354409
 C    -6.125085     0.144634    -1.683294
 F    -7.126873     0.550445    -2.463598
 C    -0.981927    -3.275000    -0.226655
 C    -0.169779    -4.071345    -1.035538
 H     0.426947    -3.588958    -1.811572
 C    -1.767412    -3.856492     0.769950
 H    -2.416797    -3.236377     1.387669
 C    -0.123006    -5.448072    -0.842657
 H     0.504978    -6.089539    -1.463649
 C    -1.715694    -5.234878     0.967942
 H    -2.317153    -5.713550     1.742861
 C    -0.894454    -6.015347     0.165273
 F    -0.847929    -7.334614     0.359866
