  86
scf done:    -4441.183389
 C    -1.163075     0.872534    -3.182988
 H    -1.378816     0.182024    -4.014153
 H    -2.133821     1.199308    -2.783742
 C    -0.376497     2.075058    -3.681681
 H     0.564678     1.784134    -4.175316
 H    -0.954263     2.671196    -4.414978
 H    -0.110866     2.764211    -2.860822
Rh     0.022233     0.052377    -1.653565
 C    -1.702688     1.594335     1.093424
 C    -3.460702     0.249109    -0.755607
 C    -1.877397    -1.302079     0.878841
 C     1.687209    -1.625852     1.119811
 C     3.419734    -0.266609    -0.726991
 C     1.883012     1.276657     0.983827
 P     1.704125    -0.226172    -0.057677
 P    -1.730183     0.227667    -0.127451
 C     0.865502    -0.963030    -2.942977
 O     1.279059    -1.749935    -3.677579
 C    -1.297432     1.454217     2.421338
 H    -1.068419     0.459316     2.806597
 C    -1.937815     2.894766     0.597743
 O    -2.205396     2.965004    -0.719169
 C    -2.493718     4.199187    -1.316831
 H    -3.396405     4.658955    -0.879521
 H    -2.671431     3.992454    -2.378934
 H    -1.648101     4.902380    -1.224753
 C    -1.172586     2.561892     3.260170
 H    -0.841769     2.430580     4.291976
 C    -1.859419     4.003210     1.443634
 H    -2.067320     5.004770     1.066088
 C    -1.471667     3.829394     2.772560
 H    -1.379372     4.702966     3.421699
 C    -3.756578    -0.580753    -1.841903
 H    -2.948705    -1.140790    -2.321875
 C    -4.493181     0.970563    -0.151902
 H    -4.283467     1.617538     0.703443
 C    -5.057381    -0.691468    -2.321327
 H    -5.289134    -1.336406    -3.170287
 C    -5.799145     0.874144    -0.625225
 H    -6.608080     1.437894    -0.157591
 C    -6.073080     0.042087    -1.709334
Cl    -7.695686    -0.080378    -2.303869
 C    -2.676949    -1.388287     2.025298
 H    -3.213356    -0.509304     2.390095
 C    -1.263927    -2.460073     0.392184
 H    -0.657993    -2.387554    -0.517179
 C    -2.802660    -2.589512     2.715232
 H    -3.404613    -2.655890     3.622861
 C    -1.408922    -3.674774     1.053778
 H    -0.926293    -4.577656     0.679593
 C    -2.153915    -3.724190     2.228175
Cl    -2.264231    -5.215598     3.102885
 C     1.261179    -1.529527     2.445326
 H     1.003786    -0.550718     2.853414
 C     1.955443    -2.907451     0.591148
 O     2.238457    -2.936787    -0.722001
 C     2.509318    -4.152090    -1.366034
 H     3.422905    -4.625260    -0.967549
 H     2.654646    -3.909281    -2.425323
 H     1.665127    -4.856619    -1.271375
 C     1.149422    -2.661328     3.252818
 H     0.802037    -2.564956     4.283012
 C     1.889483    -4.038933     1.407476
 H     2.123742    -5.025176     1.005762
 C     1.481952    -3.908773     2.735268
 H     1.400996    -4.801021     3.360044
 C     3.680886     0.413832    -1.918916
 H     2.855698     0.890102    -2.456372
 C     4.479504    -0.876819    -0.048938
 H     4.295018    -1.413360     0.885356
 C     4.972475     0.483432    -2.433926
 H     5.176108     1.012031    -3.366404
 C     5.773925    -0.822332    -0.555439
 H     6.601608    -1.305049    -0.033140
 C     6.012849    -0.140036    -1.748368
Cl     7.622675    -0.070336    -2.384199
 C     2.637927     1.334430     2.161226
 H     3.136231     0.439629     2.540389
 C     1.313397     2.454932     0.490205
 H     0.739087     2.419432    -0.441874
 C     2.764076     2.526297     2.868012
 H     3.331488     2.569343     3.799024
 C     1.456259     3.659322     1.169650
 H     1.004537     4.575241     0.788738
 C     2.158660     3.680072     2.371312
Cl     2.265306     5.158462     3.267538
