  60
scf done:    -1539.103634
 C     1.156446    -2.571510    -0.640000
 H     0.883492    -3.116757    -1.558765
 H     2.204760    -2.269148    -0.800838
 C     1.086107    -3.514166     0.555733
 H     0.068662    -3.909988     0.705505
 H     1.758449    -4.386539     0.443722
 H     1.370497    -3.015567     1.497931
Rh    -0.159499    -0.937756    -0.274324
 C     3.018692    -0.231146     1.084626
 C     2.716699     0.241575    -1.775328
 C     1.622497     2.191038     0.058848
 C    -2.800537     1.213366    -1.091311
 C    -3.159934    -0.394215     1.286970
 C    -1.626714     2.043857     1.421930
 P    -1.847020     0.537200     0.365094
 P     1.786706     0.357505    -0.185239
 C    -1.427967    -2.000063    -1.081148
 O    -2.172565    -2.613010    -1.714809
 H     3.166846    -1.278556     0.768682
 C     4.375731     0.459626     1.112885
 H     5.062195    -0.088035     1.779086
 H     4.849655     0.506498     0.121599
 H     4.298276     1.485262     1.505184
 C     2.371315    -0.256353     2.464560
 H     1.399174    -0.772560     2.439537
 H     3.020218    -0.777785     3.186145
 H     2.208456     0.762473     2.852477
 H     3.095428    -0.790180    -1.831914
 C     1.843425     0.543526    -2.983146
 H     1.460903     1.576575    -2.966122
 H     0.975458    -0.133852    -2.998468
 H     3.595901     0.903562    -1.738591
 H     2.407046     0.415029    -3.919950
 H     1.431405     2.335137     1.134860
 C     2.725521     3.118530    -0.430440
 H     2.848037     3.061481    -1.522116
 H     3.700572     2.897943     0.023910
 H     0.677856     2.447752    -0.444257
 H     2.478403     4.164158    -0.188184
 H    -3.112858     0.287883    -1.607405
 C    -4.043954     2.025558    -0.754061
 H    -4.597899     2.270283    -1.674942
 H    -4.734353     1.482859    -0.091582
 H    -3.787744     2.981143    -0.270205
 C    -1.857247     1.964834    -2.023431
 H    -0.982815     1.345244    -2.272031
 H    -2.370270     2.237316    -2.959593
 H    -1.498732     2.902262    -1.566143
 H    -3.729515    -0.933374     0.510871
 C    -2.618357    -1.390610     2.303371
 H    -2.094008    -0.893815     3.132375
 H    -1.900039    -2.075205     1.825854
 H    -3.858511     0.317527     1.758065
 H    -3.434169    -1.989319     2.737188
 H    -2.615455     2.505280     1.576503
 C    -0.951669     1.779088     2.758392
 H    -0.033668     1.187096     2.634001
 H    -1.609495     1.221425     3.440762
 H    -1.035495     2.759740     0.830709
 H    -0.684320     2.721665     3.260675
