 100
scf done:    -3109.298564
 C    -1.297327    -3.729759     1.277275
 H    -0.827856    -4.427399     1.987326
 H    -2.270969    -3.483149     1.727237
 C    -1.478209    -4.414857    -0.071626
 H    -2.073747    -5.343343     0.012128
 H    -1.996886    -3.775449    -0.806878
 H    -0.511340    -4.689496    -0.523352
Rh    -0.066812    -2.035700     0.896483
 C    -3.638273    -1.493690     0.692264
 O    -2.243118     0.099253     2.207374
 O    -2.058717     0.493946    -0.243723
 C     2.180535     0.694189     1.408205
 O     2.789944    -1.156949    -0.390098
 O     0.906599     0.477560    -1.053810
 P     1.401333    -0.451628     0.213098
 P    -1.948687    -0.775993     0.836756
 C     1.279734    -3.036593     1.726388
 O     2.056366    -3.593722     2.361171
 H    -3.575052    -2.304466    -0.047936
 H    -3.828268    -1.967040     1.667732
 C    -4.703545    -0.503298     0.330529
 C    -5.189354     0.413819     1.271983
 H    -4.793849     0.397464     2.289223
 C    -5.213279    -0.455557    -0.971994
 H    -4.838053    -1.152937    -1.725006
 C    -6.157033     1.352168     0.925750
 H    -6.544068     2.069198     1.651942
 C    -6.181700     0.477023    -1.333933
 H    -6.579452     0.521633    -2.349053
 C    -6.641036     1.372203    -0.377308
 F    -7.566259     2.270416    -0.714425
 C    -1.332141     0.968635     2.761039
 C    -1.271513     2.275413     2.282328
 H    -1.932313     2.557062     1.461315
 C    -0.548253     0.537268     3.842082
 C    -0.666510    -0.863753     4.351935
 H    -1.699364    -1.083384     4.664401
 H    -0.414870    -1.584334     3.553820
 H     0.001793    -1.032416     5.206665
 C    -0.387680     3.183057     2.863373
 H    -0.333947     4.206850     2.485960
 C     0.325732     1.471331     4.408257
 H     0.951331     1.159505     5.248772
 C     0.417278     2.777052     3.926249
 H     1.116047     3.478872     4.386542
 C    -2.154185     0.318605    -1.595851
 C    -1.742425    -0.854695    -2.228156
 H    -1.300701    -1.662776    -1.637597
 C    -2.715312     1.380515    -2.323263
 C    -3.203236     2.604145    -1.613359
 H    -3.814332     2.329283    -0.740529
 H    -2.362540     3.214622    -1.247283
 H    -3.807819     3.231230    -2.282160
 C    -1.872389    -0.981193    -3.609771
 H    -1.544769    -1.901597    -4.099128
 C    -2.828490     1.226449    -3.706393
 H    -3.267818     2.042398    -4.286637
 C    -2.412782     0.063269    -4.354449
 H    -2.517844    -0.026941    -5.437645
 H     1.343489     1.287736     1.805665
 H     2.479629     0.018965     2.227638
 C     3.312507     1.581726     0.976929
 C     4.552939     1.057117     0.592519
 H     4.704135    -0.022483     0.601263
 C     3.150146     2.972162     0.978013
 H     2.194099     3.397749     1.287612
 C     5.588771     1.892137     0.182628
 H     6.556673     1.492707    -0.125624
 C     4.174527     3.819630     0.571464
 H     4.045995     4.902923     0.553230
 C     5.382049     3.265471     0.167227
 F     6.366934     4.069304    -0.235297
 C     2.717261    -2.324134    -1.107601
 C     1.710546    -2.535445    -2.050722
 H     0.986988    -1.743759    -2.252108
 C     3.696780    -3.294232    -0.849943
 C     4.773312    -3.033013     0.157771
 H     5.411750    -2.190235    -0.152195
 H     4.346705    -2.772131     1.138144
 H     5.414032    -3.915482     0.286600
 C     1.652959    -3.746392    -2.737559
 H     0.861047    -3.912384    -3.471563
 C     3.616448    -4.495818    -1.559292
 H     4.366332    -5.267674    -1.366209
 C     2.604610    -4.731746    -2.489293
 H     2.565149    -5.684040    -3.022385
 C     1.226676     1.771184    -1.390896
 C     0.420037     2.788619    -0.890975
 H    -0.398521     2.511626    -0.227927
 C     2.283981     2.031895    -2.274253
 C     3.121504     0.925034    -2.832483
 H     3.753205     0.477580    -2.050543
 H     2.494861     0.116100    -3.236622
 H     3.774679     1.295885    -3.633529
 C     0.677048     4.112207    -1.235780
 H     0.045916     4.911505    -0.839271
 C     2.519764     3.370965    -2.601994
 H     3.344231     3.602455    -3.281548
 C     1.737240     4.404817    -2.090615
 H     1.952201     5.438619    -2.370092
