  94
scf done:    -4670.216083
 C     2.063147     0.196071    -3.551438
 H     2.212880     1.122060    -4.118302
 H     3.040007    -0.273994    -3.382525
 C     1.010510    -0.721508    -4.128184
 H     0.525494    -0.324640    -5.031185
 H     1.379539    -1.737911    -4.335222
 H     0.148113    -0.883955    -3.398267
Rh     0.823144     0.384431    -1.887723
 C     2.855248    -2.381018    -0.626219
 O     3.871290     0.092783    -0.966842
 O     2.295490    -0.443925     1.011126
 C    -1.008574    -1.154146     0.793910
 O    -1.615173     1.367084     0.326996
 O    -2.241178    -0.352892    -1.531905
 P    -0.983296     0.099174    -0.536570
 P     2.379955    -0.599950    -0.659769
 C     0.728336     2.251650    -2.159463
 O     0.905392     3.386250    -2.194754
 H     3.242045    -2.588768    -1.636873
 H     3.680615    -2.514166     0.088674
 C     1.686564    -3.257917    -0.302771
 C     1.450763    -3.679914     1.010154
 H     2.142187    -3.384170     1.802599
 C     0.776279    -3.620412    -1.302219
 H     0.949176    -3.279832    -2.327167
 C     0.336788    -4.461715     1.303152
 H     0.153659    -4.785006     2.330394
 C    -0.345351    -4.409745    -1.026016
 C    -1.281494    -4.822891    -2.124023
 H    -1.289390    -4.089203    -2.943350
 H    -0.977468    -5.790845    -2.555811
 H    -2.310095    -4.940819    -1.753303
 C    -0.552339    -4.827257     0.294049
 H    -1.422545    -5.444054     0.534604
 C     5.055067    -0.311967    -0.414105
 C     5.970964    -0.993920    -1.216605
 H     5.711961    -1.202123    -2.256641
 C     5.371859    -0.014716     0.912841
 H     4.661905     0.537346     1.529344
 C     7.197907    -1.391415    -0.695540
 H     7.921311    -1.923553    -1.315183
 C     6.597569    -0.413659     1.438089
 H     6.856844    -0.186028     2.473199
 C     7.503953    -1.103657     0.634299
Cl     9.027642    -1.601404     1.290585
 C     1.926748     0.708299     1.641146
 C     1.310487     0.584606     2.888359
 H     1.154448    -0.411047     3.308188
 C     2.155074     1.974695     1.094630
 H     2.651188     2.075117     0.129027
 C     0.894256     1.718586     3.577783
 H     0.399398     1.629334     4.546047
 C     1.734031     3.109462     1.780837
 H     1.886206     4.099057     1.347920
 C     1.098459     2.976578     3.012843
Cl     0.518262     4.391012     3.834576
 H    -0.836925    -2.097747     0.253629
 H    -0.082705    -0.958285     1.352448
 C    -2.188480    -1.265828     1.714874
 C    -2.487478    -0.264895     2.645134
 H    -1.859408     0.625168     2.701814
 C    -2.997560    -2.405889     1.667862
 H    -2.754523    -3.194136     0.951392
 C    -3.596535    -0.400645     3.477016
 H    -3.831321     0.387317     4.197195
 C    -4.110668    -2.558987     2.496364
 C    -4.976955    -3.781184     2.407368
 H    -4.497242    -4.569275     1.809570
 H    -5.194741    -4.192993     3.404700
 H    -5.942610    -3.545947     1.931653
 C    -4.405801    -1.531375     3.400961
 H    -5.274618    -1.625092     4.058581
 C    -1.797550     2.629561    -0.165115
 C    -1.503569     3.696567     0.682753
 H    -1.130254     3.494420     1.686009
 C    -2.295949     2.863196    -1.448350
 H    -2.535634     2.025123    -2.104147
 C    -1.678629     5.002330     0.242416
 H    -1.439852     5.841229     0.897892
 C    -2.467894     4.172062    -1.891220
 H    -2.843563     4.369587    -2.896119
 C    -2.153092     5.235341    -1.048871
Cl    -2.359074     6.862963    -1.605659
 C    -3.480735    -0.800587    -1.154562
 C    -4.328175    -0.042545    -0.344396
 H    -4.001912     0.923186     0.038880
 C    -3.897523    -2.036119    -1.647096
 H    -3.221915    -2.601630    -2.289915
 C    -5.577546    -0.543598     0.002402
 H    -6.238920     0.028887     0.653740
 C    -5.151773    -2.535199    -1.309861
 H    -5.487640    -3.502923    -1.685802
 C    -5.982300    -1.787166    -0.478439
Cl    -7.540350    -2.410610    -0.035416
