  96
scf done:    -2808.502179
 C    -1.256664     0.496073    -3.935733
 H    -0.699527     0.129734    -4.813965
 H    -2.116111    -0.188248    -3.842787
 C    -1.741435     1.913880    -4.215631
 H    -0.900347     2.601571    -4.398506
 H    -2.403089     1.967137    -5.101170
 H    -2.309314     2.343887    -3.372787
Rh    -0.029053     0.316859    -2.210736
 C    -3.617538     0.155214    -1.650621
 C    -2.028063    -1.719275    -0.128008
 C    -1.977743     1.190297     0.451995
 C     1.049125    -0.700897     1.161968
 C     3.013272    -0.756995    -0.917448
 C     2.070937     1.788453     0.074507
 P     1.483826     0.136782    -0.455181
 P    -1.927175    -0.060966    -0.885740
 C     1.315440     0.896091    -3.336730
 O     2.127619     1.311109    -4.036713
 H    -3.619912     1.177631    -2.057505
 H    -3.634159    -0.526846    -2.512578
 C    -4.780005    -0.093231    -0.745250
 C    -5.458114    -1.318475    -0.783631
 H    -5.151560    -2.076934    -1.508198
 C    -5.190497     0.861698     0.196077
 H    -4.683837     1.828014     0.241776
 C    -6.502918    -1.597472     0.092973
 H    -7.033346    -2.550947     0.067379
 C    -6.229249     0.596677     1.084175
 H    -6.552812     1.334270     1.820716
 C    -6.870478    -0.635095     1.024560
 F    -7.864885    -0.894341     1.873905
 C    -1.178411    -2.695167    -0.666472
 H    -0.492706    -2.404907    -1.470784
 C    -2.904384    -2.093200     0.901264
 H    -3.601301    -1.370226     1.326945
 C    -1.186914    -3.998239    -0.177522
 H    -0.508784    -4.739060    -0.609910
 C    -2.901729    -3.396170     1.389727
 H    -3.586618    -3.662745     2.199553
 C    -2.044749    -4.371299     0.863492
 C    -2.069322    -5.777443     1.384858
 H    -2.189511    -5.798879     2.478038
 H    -2.914855    -6.339164     0.954030
 H    -1.148396    -6.319671     1.128552
 C    -1.884348     2.525384     0.027180
 H    -1.765622     2.744764    -1.038141
 C    -2.051018     0.934684     1.822890
 H    -2.098160    -0.090553     2.192101
 C    -1.902179     3.567079     0.945061
 H    -1.820940     4.596801     0.586711
 C    -2.045795     1.986036     2.741371
 H    -2.094386     1.760149     3.810143
 C    -1.983381     3.318021     2.322846
 C    -1.995822     4.450053     3.306965
 H    -1.852004     4.093479     4.336352
 H    -1.204509     5.182162     3.083503
 H    -2.954133     4.993523     3.271978
 H     0.299182    -0.060501     1.646446
 H     0.526461    -1.620886     0.867161
 C     2.191285    -1.018356     2.071908
 C     2.811942    -2.272541     1.999545
 H     2.430946    -3.015830     1.294651
 C     2.706516    -0.077860     2.973504
 H     2.244173     0.907818     3.049974
 C     3.914825    -2.584040     2.787992
 H     4.404320    -3.557695     2.729767
 C     3.812801    -0.370857     3.767115
 H     4.220723     0.357825     4.469995
 C     4.406692    -1.622261     3.660945
 F     5.468021    -1.907655     4.417216
 C     2.927634    -1.730122    -1.917694
 H     1.978338    -1.861917    -2.446524
 C     4.240115    -0.572720    -0.264663
 H     4.331464     0.175123     0.526049
 C     4.035741    -2.506911    -2.250485
 H     3.947371    -3.262459    -3.036003
 C     5.344627    -1.341203    -0.610636
 H     6.292156    -1.181327    -0.088306
 C     5.263012    -2.324994    -1.605934
 C     6.467987    -3.139111    -1.975273
 H     7.217263    -2.520154    -2.495394
 H     6.958516    -3.555029    -1.081694
 H     6.204555    -3.972862    -2.640923
 C     3.099165     2.435709    -0.625155
 H     3.621837     1.915366    -1.431280
 C     1.399543     2.503601     1.071480
 H     0.563201     2.054283     1.610726
 C     3.458913     3.741541    -0.311800
 H     4.265059     4.222152    -0.873421
 C     1.766685     3.810943     1.380838
 H     1.223585     4.344239     2.166296
 C     2.805486     4.454151     0.702067
 C     3.217691     5.854969     1.047020
 H     2.473246     6.348725     1.687606
 H     4.178823     5.863512     1.587369
 H     3.351089     6.468167     0.142754
