  88
scf done:    -4790.027785
 C     0.418013    -4.069752     0.567753
 H    -0.075666    -4.859128    -0.019422
 H     1.482517    -4.124508     0.279344
 C     0.236452    -4.335643     2.055435
 H    -0.828851    -4.331923     2.337460
 H     0.646321    -5.317214     2.358191
 H     0.733799    -3.576420     2.683305
Rh    -0.470430    -2.161958     0.264427
 C     2.936239    -1.924220     1.400179
 O     2.379302    -1.664511    -1.195715
 O     1.716194     0.315795     0.320415
 C    -1.389328     0.778846    -1.437100
 O    -3.183784    -0.265640     0.217746
 O    -1.154118     0.894058     1.334275
 P    -1.519427    -0.175273     0.122069
 P     1.620148    -1.345913     0.254411
 C    -1.818033    -3.085989    -0.654747
 O    -2.526438    -3.637978    -1.368062
 H     2.624426    -1.529603     2.380746
 H     2.769191    -3.012655     1.445573
 C     4.381121    -1.611174     1.130781
 C     5.041799    -2.129385     0.009424
 H     4.499324    -2.769406    -0.687415
 C     5.105406    -0.803427     2.014732
 H     4.612781    -0.397682     2.901154
 C     6.373526    -1.816361    -0.244240
 H     6.895080    -2.208987    -1.119004
 C     6.437054    -0.479707     1.775044
 H     6.997940     0.173265     2.445675
 C     7.053290    -0.985254     0.638079
 F     8.323416    -0.670746     0.389255
 C     1.641581    -1.636655    -2.356919
 C     1.007830    -2.796685    -2.800749
 H     1.101382    -3.712033    -2.216030
 C     1.530174    -0.451630    -3.081143
 H     2.026092     0.451539    -2.722409
 C     0.250381    -2.769331    -3.966531
 H    -0.261404    -3.666419    -4.317642
 C     0.774448    -0.419416    -4.250906
 H     0.673967     0.503440    -4.824123
 C     0.130548    -1.577463    -4.682622
Cl    -0.828897    -1.536547    -6.123348
 C     2.848971     1.061343     0.520720
 C     3.864422     1.125873    -0.434940
 H     3.790350     0.533512    -1.346386
 C     2.951342     1.787078     1.706960
 H     2.148350     1.715039     2.443150
 C     4.995927     1.894236    -0.187858
 H     5.810568     1.929311    -0.912437
 C     4.078968     2.565712     1.952409
 H     4.176370     3.128927     2.881860
 C     5.101769     2.605446     1.007344
Cl     6.535768     3.517975     1.334508
 H    -0.328352     1.071889    -1.466469
 H    -1.503462    -0.000878    -2.209284
 C    -2.292123     1.951484    -1.691714
 C    -3.665598     1.777377    -1.903398
 H    -4.088838     0.772356    -1.886213
 C    -1.773007     3.250112    -1.733922
 H    -0.702866     3.406814    -1.582303
 C    -4.502665     2.868646    -2.112219
 H    -5.575094     2.743852    -2.272282
 C    -2.596244     4.353047    -1.937805
 H    -2.201956     5.370476    -1.941854
 C    -3.957696     4.146985    -2.116223
 F    -4.758110     5.195531    -2.301042
 C    -3.787524    -1.148297     1.071499
 C    -4.917485    -1.824481     0.613677
 H    -5.271381    -1.639928    -0.401916
 C    -3.303478    -1.377464     2.361646
 H    -2.428280    -0.833081     2.721401
 C    -5.565455    -2.735232     1.440822
 H    -6.447072    -3.274254     1.090973
 C    -3.946036    -2.296293     3.187295
 H    -3.574730    -2.487955     4.195075
 C    -5.073298    -2.971882     2.724493
Cl    -5.871401    -4.115501     3.751797
 C    -1.509763     2.219956     1.369283
 C    -2.845576     2.611709     1.466564
 H    -3.631166     1.856988     1.500795
 C    -0.494622     3.173286     1.328251
 H     0.541182     2.842363     1.249106
 C    -3.165837     3.964582     1.474605
 H    -4.206953     4.287022     1.519536
 C    -0.812219     4.527877     1.351936
 H    -0.027528     5.284650     1.305816
 C    -2.148876     4.916384     1.406939
Cl    -2.554345     6.599616     1.359363
