  88
scf done:    -2952.151501
 C     1.349955    -3.732514     1.039613
 H     1.211853    -4.704697     0.542785
 H     2.324720    -3.369432     0.671290
 C     1.383849    -3.915857     2.551161
 H     0.442898    -4.344876     2.931728
 H     2.197807    -4.593826     2.869819
 H     1.535989    -2.963580     3.086844
Rh    -0.252577    -2.401986     0.560561
 C     2.627523    -0.526752     1.611117
 O     2.479488    -1.305834    -0.902599
 O     0.859119     0.602312    -0.179772
 C    -3.664632    -1.537409     0.182335
 O    -2.120996     0.192624     1.458348
 O    -1.919800    -0.023602    -1.125242
 P    -1.927234    -0.940683     0.252889
 P     1.411626    -0.879113     0.289548
 C    -1.253012    -3.943903     0.223291
 O    -1.817704    -4.891250    -0.091516
 H     2.016454    -0.162059     2.450753
 H     3.011284    -1.517459     1.901253
 C     3.729631     0.432044     1.277636
 C     4.831583     0.030216     0.514434
 H     4.907611    -1.008034     0.186123
 C     3.649663     1.767550     1.688031
 H     2.794285     2.094448     2.284118
 C     5.816231     0.941242     0.144915
 H     6.677157     0.642423    -0.455692
 C     4.622950     2.691447     1.323795
 H     4.557636     3.739214     1.620398
 C     5.692077     2.265398     0.546475
 F     6.623345     3.146359     0.181063
 C     2.094449    -1.922596    -2.066352
 C     3.021921    -2.771169    -2.667487
 H     3.986946    -2.927260    -2.182095
 C     0.846590    -1.700186    -2.650243
 H     0.122906    -1.036828    -2.174290
 C     2.696542    -3.404967    -3.863960
 H     3.423122    -4.072287    -4.333385
 C     0.532233    -2.346532    -3.844582
 H    -0.447387    -2.176727    -4.297658
 C     1.450406    -3.198158    -4.455876
 H     1.196373    -3.700468    -5.391634
 C     1.513395     1.734464    -0.607551
 C     2.539578     1.700703    -1.551280
 H     2.891677     0.749404    -1.945701
 C     1.050157     2.949189    -0.106972
 H     0.222967     2.940424     0.600713
 C     3.121249     2.898702    -1.960780
 H     3.937167     2.870750    -2.686752
 C     1.630592     4.138254    -0.534630
 H     1.256065     5.087876    -0.145230
 C     2.675234     4.119809    -1.457706
 H     3.137145     5.052446    -1.788361
 H    -3.690559    -2.256746    -0.651130
 H    -3.807400    -2.113508     1.110689
 C    -4.680944    -0.453246     0.018404
 C    -5.202014     0.216609     1.132256
 H    -4.908389    -0.098316     2.136052
 C    -5.061421    -0.022992    -1.258426
 H    -4.653525    -0.525154    -2.138616
 C    -6.074207     1.290813     0.980799
 H    -6.486851     1.819625     1.841795
 C    -5.931823     1.049084    -1.427122
 H    -6.226597     1.396796    -2.418487
 C    -6.424615     1.696708    -0.301498
 F    -7.254453     2.727751    -0.452891
 C    -1.229590     0.389511     2.474080
 C    -0.743610    -0.674274     3.238697
 H    -1.060981    -1.696179     3.008628
 C    -0.849653     1.699456     2.765408
 H    -1.263883     2.509121     2.162534
 C     0.143071    -0.417496     4.284375
 H     0.522809    -1.252177     4.878167
 C     0.035677     1.944151     3.812364
 H     0.332925     2.971660     4.035585
 C     0.541351     0.887588     4.572104
 H     1.236255     1.082522     5.391572
 C    -1.886855     1.320780    -1.373109
 C    -2.613825     2.251495    -0.627434
 H    -3.231928     1.921508     0.205993
 C    -1.123440     1.736789    -2.465756
 H    -0.560648     0.994065    -3.032893
 C    -2.551187     3.600132    -0.976596
 H    -3.125858     4.324357    -0.393669
 C    -1.076214     3.084516    -2.806082
 H    -0.463506     3.401242    -3.652997
 C    -1.784864     4.025247    -2.060099
 H    -1.741317     5.083992    -2.323856
