 100
scf done:    -2859.383410
 C    -0.493478    -1.483623    -3.521115
 H    -1.049310    -1.298342    -4.453450
 H     0.548070    -1.639243    -3.839459
 C    -1.049959    -2.736199    -2.856943
 H    -1.033994    -3.611281    -3.534349
 H    -0.484219    -3.024328    -1.955263
 H    -2.098893    -2.599582    -2.543090
Rh    -0.712678     0.095972    -2.130066
 C     1.451005    -1.223883     0.567158
 C     2.462108    -1.567378    -2.118561
 C     2.398854     1.097484    -0.946080
 C    -0.747505     3.327187    -0.597087
 C    -3.277369     2.054684    -0.735197
 C    -1.366392     1.176017     1.246867
 P    -1.470076     1.622838    -0.547028
 P     1.348920    -0.456837    -1.108729
 C    -1.655212     0.922893    -3.463455
 O    -2.135037     1.508624    -4.334595
 H     2.492201    -1.204532     0.925846
 H     0.886843    -0.557125     1.238076
 C     0.871402    -2.629405     0.642143
 H    -0.094187    -2.665068     0.115419
 H     1.524314    -3.342349     0.109171
 C     0.666311    -3.102266     2.073629
 H    -0.027604    -2.406961     2.577552
 H     1.620137    -3.033211     2.628452
 C     0.119247    -4.519079     2.171239
 H    -0.800539    -4.590971     1.565369
 H     0.837401    -5.220944     1.710616
 C    -0.184253    -4.949698     3.596638
 H    -0.552966    -5.985608     3.637530
 H    -0.957757    -4.307179     4.045585
 H     0.712083    -4.887582     4.234811
 H     1.965301    -2.549660    -2.135254
 H     2.397141    -1.174260    -3.142965
 C     3.891842    -1.673631    -1.690940
 C     4.878903    -0.908508    -2.329708
 H     4.600351    -0.269861    -3.172383
 C     4.295911    -2.513903    -0.643078
 H     3.560343    -3.146392    -0.143001
 C     6.211566    -0.948875    -1.925962
 H     6.979060    -0.353527    -2.423521
 C     5.622355    -2.567880    -0.224823
 H     5.937410    -3.221068     0.590851
 C     6.566436    -1.775944    -0.867931
 F     7.836566    -1.821692    -0.470872
 H     3.202690     1.002188    -1.689770
 H     1.755534     1.918828    -1.285152
 C     2.979962     1.390028     0.405886
 C     2.313712     2.224431     1.311922
 H     1.380892     2.705996     1.015401
 C     4.195069     0.821524     0.812956
 H     4.746170     0.178272     0.125410
 C     2.820363     2.473402     2.585551
 H     2.302469     3.126929     3.289976
 C     4.717530     1.058767     2.080659
 H     5.663921     0.616360     2.396872
 C     4.018541     1.879103     2.957839
 F     4.511018     2.107260     4.174268
 H     0.335929     3.209782    -0.751244
 H    -1.120655     3.750494    -1.545721
 C    -1.011793     4.280326     0.559495
 H    -2.097140     4.392221     0.726816
 H    -0.607841     3.857376     1.495883
 C    -0.394044     5.655084     0.338830
 H    -0.803182     6.095345    -0.588272
 H     0.690789     5.539807     0.160650
 C    -0.615600     6.614850     1.499429
 H    -1.700285     6.724122     1.676833
 H    -0.206562     6.165650     2.422121
 C     0.007831     7.983183     1.277310
 H    -0.167882     8.653001     2.132393
 H    -0.408587     8.471010     0.381464
 H     1.097450     7.906681     1.132853
 H    -3.506771     2.879776    -0.042857
 H    -3.373268     2.444726    -1.760755
 C    -4.218869     0.910051    -0.505326
 C    -4.461994    -0.042485    -1.502957
 H    -4.000000     0.074475    -2.484775
 C    -4.830658     0.733961     0.741284
 H    -4.659650     1.467629     1.533463
 C    -5.266040    -1.151830    -1.257320
 H    -5.454864    -1.901050    -2.028244
 C    -5.636947    -0.368650     1.005244
 H    -6.103685    -0.518100     1.980078
 C    -5.835258    -1.306636     0.000471
 F    -6.593270    -2.374581     0.246433
 H    -0.296004     1.240940     1.510720
 H    -1.870665     1.957310     1.838381
 C    -1.914411    -0.175699     1.640350
 C    -2.204266    -0.420379     2.988913
 H    -2.018902     0.362525     3.729677
 C    -2.170476    -1.196126     0.719092
 H    -1.964363    -1.029748    -0.346750
 C    -2.729046    -1.639009     3.410446
 H    -2.953003    -1.834273     4.460638
 C    -2.706457    -2.416241     1.118328
 H    -2.921455    -3.203367     0.393617
 C    -2.975003    -2.625269     2.463238
 F    -3.465162    -3.800526     2.858974
