  96
scf done:    -2808.475312
 C    -1.587097    -3.292695    -0.551247
 H    -1.417737    -4.234589    -0.006997
 H    -2.608535    -2.981625    -0.273768
 C    -1.465637    -3.532340    -2.047864
 H    -0.476788    -3.941609    -2.310738
 H    -2.219953    -4.250433    -2.422093
 H    -1.597674    -2.606011    -2.635712
Rh    -0.095523    -1.841925    -0.211265
 C    -3.181679    -0.487309    -1.319193
 C    -2.731239    -0.524577     1.561713
 C    -1.374575     1.520772     0.093415
 C     2.086687     0.245678     1.420773
 C     3.414461    -1.321887    -0.718004
 C     1.816991     0.903196    -1.495214
 P     1.820745    -0.467152    -0.282625
 P    -1.820202    -0.265904    -0.036941
 C     0.660798    -3.083786     0.906693
 O     0.976302    -3.756702     1.792426
 H    -2.803382    -0.060467    -2.253651
 H    -3.160393    -1.576707    -1.455036
 C    -4.592977    -0.063257    -1.060882
 C    -5.420807    -0.834446    -0.233193
 H    -5.022654    -1.739370     0.231973
 C    -5.137253     1.083331    -1.651846
 H    -4.519193     1.696771    -2.311525
 C    -6.738934    -0.465823     0.016764
 H    -7.385151    -1.060937     0.664271
 C    -6.454878     1.466296    -1.417267
 H    -6.883322     2.358781    -1.876602
 C    -7.239351     0.686905    -0.576319
 F    -8.501490     1.046983    -0.342184
 C    -2.421292    -1.699646     2.263064
 H    -1.639811    -2.342853     1.856414
 C    -3.717611     0.346170     2.087062
 C    -4.130483     1.667886     1.503350
 H    -3.735892     1.851062     0.502451
 H    -3.777766     2.490618     2.145949
 H    -5.227746     1.729813     1.452076
 C    -3.069534    -2.047611     3.442486
 H    -2.800130    -2.971952     3.958165
 C    -4.357231    -0.027777     3.278052
 H    -5.124528     0.639084     3.681724
 C    -4.052796    -1.204479     3.951459
 H    -4.578949    -1.456836     4.875544
 C    -1.035532     1.972207     1.381338
 H    -1.086394     1.272913     2.219588
 C    -1.271041     2.417201    -0.988940
 C    -1.430395     2.006584    -2.423025
 H    -2.482397     2.010148    -2.747115
 H    -1.019787     1.002418    -2.599129
 H    -0.883123     2.699673    -3.075292
 C    -0.676281     3.293157     1.621993
 H    -0.426760     3.612760     2.636698
 C    -0.955888     3.755995    -0.716944
 H    -0.899555     4.454402    -1.556097
 C    -0.668885     4.203810     0.566338
 H    -0.420703     5.253722     0.738874
 H     1.270728     0.972981     1.546504
 H     1.821903    -0.612740     2.057155
 C     3.406156     0.813365     1.840202
 C     4.502796    -0.030696     2.064971
 H     4.385062    -1.109937     1.946092
 C     3.580178     2.189501     2.033334
 H     2.729121     2.864079     1.906944
 C     5.745260     0.482437     2.421663
 H     6.605353    -0.168593     2.587495
 C     4.816572     2.720327     2.393032
 H     4.959691     3.792008     2.541764
 C     5.889758     1.856779     2.569935
 F     7.079558     2.355342     2.904716
 C     3.375804    -2.723094    -0.722243
 H     2.423470    -3.214628    -0.521001
 C     4.632646    -0.673455    -1.051329
 C     4.824056     0.810535    -1.177512
 H     4.337291     1.373822    -0.375478
 H     4.413604     1.183096    -2.129156
 H     5.895612     1.051883    -1.155871
 C     4.497677    -3.498336    -0.997903
 H     4.422878    -4.587905    -0.985173
 C     5.749163    -1.476934    -1.322107
 H     6.692441    -0.980726    -1.565620
 C     5.700047    -2.866712    -1.292514
 H     6.598621    -3.449788    -1.508829
 C     1.904637     2.242955    -1.112694
 H     1.913154     2.506805    -0.055890
 C     1.750596     0.571856    -2.868811
 C     1.580532    -0.842817    -3.338798
 H     0.830649    -1.379830    -2.730151
 H     2.517248    -1.415351    -3.250588
 H     1.260547    -0.872083    -4.389513
 C     2.001577     3.256928    -2.060746
 H     2.081987     4.296439    -1.735596
 C     1.851596     1.605282    -3.805676
 H     1.812516     1.354980    -4.869423
 C     1.993682     2.935521    -3.414860
 H     2.082192     3.719899    -4.170442
