 110
scf done:    -2393.701707
 C     2.779658    -2.623565    -1.315739
 H     3.254135    -2.545362    -2.309886
 H     3.568184    -2.327222    -0.601941
 C     2.406937    -4.075948    -1.036844
 H     1.712537    -4.477043    -1.792262
 H     3.290852    -4.741801    -1.022503
 H     1.907257    -4.198060    -0.060446
Rh     1.070078    -1.353747    -1.222648
 C     3.029613    -0.818576     1.678761
 C     3.919809     0.480946    -0.783407
 C     1.854553     1.610518     0.876947
 C    -1.392945     0.965219    -2.276445
 C    -2.349592    -1.563801    -1.312094
 C    -1.459292     0.398913     0.626087
 P    -0.998834    -0.347570    -1.003931
 P     2.392764     0.004373     0.138523
 C     0.531285    -2.179353    -2.777998
 O     0.253392    -2.592747    -3.818433
 H     3.518054    -1.751360     1.359968
 H     3.790787    -0.179934     2.151549
 C     1.904967    -1.099828     2.631026
 C     1.705018    -0.306741     3.764722
 H     2.395884     0.512977     3.980024
 C     1.007535    -2.145387     2.374652
 H     1.148641    -2.752904     1.474892
 C     0.635574    -0.561401     4.622581
 H     0.485497     0.064955     5.505389
 C    -0.057267    -2.426019     3.234702
 C    -0.972216    -3.587718     2.980022
 H    -0.778305    -4.046730     2.002096
 H    -0.840710    -4.365977     3.749205
 H    -2.029514    -3.281547     3.009698
 C    -0.236379    -1.613233     4.362305
 H    -1.067500    -1.812712     5.044469
 H     3.561240     0.946334    -1.716985
 H     4.372015    -0.472816    -1.091888
 C     4.927372     1.379927    -0.083250
 H     4.444586     2.330174     0.201117
 H     5.263657     0.915614     0.861601
 C     6.164945     1.708781    -0.925680
 H     5.807775     2.141113    -1.879555
 C     7.017146     2.760482    -0.224470
 H     6.441507     3.676995    -0.020135
 H     7.891269     3.040438    -0.832409
 H     7.392487     2.380536     0.740603
 C     6.991361     0.469705    -1.251901
 H     7.877575     0.732237    -1.849833
 H     6.419121    -0.275851    -1.823423
 H     7.346354    -0.016619    -0.327485
 H     2.673458     1.972047     1.522858
 H     1.017433     1.372494     1.548922
 C     1.471598     2.684878    -0.127158
 H     2.266965     2.790803    -0.884586
 H     0.577864     2.363224    -0.687076
 C     1.218829     4.063385     0.492780
 H     2.155116     4.364960     0.999907
 C     0.928684     5.091306    -0.595012
 H     1.742932     5.136616    -1.334822
 H     0.801261     6.099738    -0.172095
 H     0.002898     4.841541    -1.139931
 C     0.111855     4.049309     1.541787
 H    -0.029800     5.050192     1.977806
 H     0.328274     3.357166     2.369048
 H    -0.851539     3.745082     1.100941
 H    -0.527888     1.643705    -2.285741
 H    -1.371963     0.425348    -3.236254
 C    -2.670868     1.716511    -2.083757
 C    -3.887491     1.230349    -2.576555
 H    -3.900891     0.324386    -3.187474
 C    -2.682600     2.900202    -1.335030
 H    -1.734221     3.301208    -0.968205
 C    -5.077864     1.893796    -2.286274
 H    -6.023059     1.505329    -2.673549
 C    -3.865889     3.574170    -1.026010
 C    -3.850084     4.809145    -0.172810
 H    -4.206224     4.584295     0.846493
 H    -2.836862     5.226277    -0.084721
 H    -4.508401     5.590713    -0.580901
 C    -5.071722     3.048637    -1.507923
 H    -6.012270     3.558306    -1.281353
 H    -2.266647    -1.839167    -2.377617
 H    -3.325200    -1.073392    -1.178152
 C    -2.221108    -2.809558    -0.448533
 H    -1.189038    -3.191248    -0.544314
 H    -2.347457    -2.540298     0.615029
 C    -3.208094    -3.924530    -0.801424
 H    -3.065994    -4.156951    -1.873841
 C    -2.897546    -5.187872    -0.007243
 H    -1.856642    -5.513110    -0.160516
 H    -3.557111    -6.019201    -0.300924
 H    -3.039658    -5.018260     1.072924
 C    -4.658530    -3.498756    -0.599786
 H    -5.352127    -4.316734    -0.849314
 H    -4.929316    -2.634749    -1.225085
 H    -4.839287    -3.218507     0.452108
 H    -1.013637     1.406420     0.622491
 H    -0.894985    -0.177263     1.377113
 C    -2.935961     0.486472     0.999877
 H    -3.538928     0.761457     0.122560
 H    -3.297080    -0.507077     1.319914
 C    -3.227549     1.504681     2.104684
 H    -2.851607     2.481106     1.744388
 C    -4.730040     1.640451     2.316664
 H    -5.238580     1.919899     1.380465
 H    -4.962656     2.405138     3.074527
 H    -5.165919     0.688042     2.662412
 C    -2.507896     1.178107     3.406890
 H    -2.726958     1.929399     4.181832
 H    -1.415875     1.136941     3.281453
 H    -2.826207     0.195616     3.794267
