 106
scf done:    -2989.336167
 C    -2.244644    -1.149250    -2.832397
 H    -2.673871    -2.166208    -2.858973
 H    -3.117540    -0.491699    -2.689262
 C    -1.598363    -0.820359    -4.172663
 H    -0.787495    -1.520422    -4.430270
 H    -2.326685    -0.847358    -5.005678
 H    -1.152249     0.189107    -4.179307
Rh    -0.836639    -0.989812    -1.236229
 C    -2.506624     2.077177    -1.330812
 C    -4.131859    -0.144958    -0.451327
 C    -2.416967     0.947587     1.435251
 C     1.234751     1.113797     0.762863
 C     1.392616    -1.726145     1.493181
 C     2.558396    -0.718948    -0.994084
 P     1.062006    -0.613836     0.070535
 P    -2.417556     0.506844    -0.352118
 C    -0.180248    -2.543004    -1.970382
 O     0.084011    -3.567556    -2.429138
 H    -2.702112     1.737157    -2.359258
 H    -3.349293     2.686547    -0.987286
 C    -1.226226     2.855345    -1.268115
 C    -1.004871     3.778121    -0.237860
 H    -1.782157     3.938273     0.511771
 C    -0.222157     2.656014    -2.220665
 H    -0.388122     1.924433    -3.016750
 C     0.194609     4.480639    -0.173896
 H     0.366478     5.192166     0.637188
 C     0.983547     3.367894    -2.180391
 C     2.039693     3.136887    -3.221364
 H     2.478636     2.130574    -3.126302
 H     1.622394     3.210303    -4.237426
 H     2.855892     3.867886    -3.134085
 C     1.180088     4.280673    -1.138798
 H     2.119694     4.835923    -1.079693
 C    -5.202252     0.521616    -1.044196
 H    -5.056249     1.520598    -1.457708
 C    -4.342743    -1.437724     0.073101
 O    -3.277560    -2.005075     0.660354
 C    -3.264210    -3.376564     0.938261
 H    -3.971340    -3.638462     1.744797
 H    -2.242823    -3.612786     1.263159
 H    -3.499589    -3.969380     0.038324
 C    -6.460638    -0.075907    -1.137321
 H    -7.285677     0.458910    -1.612278
 C    -5.595838    -2.045893    -0.030126
 H    -5.755356    -3.050368     0.363450
 C    -6.648855    -1.358756    -0.634111
 H    -7.627076    -1.839912    -0.709421
 C    -1.727257     0.080542     2.283599
 H    -1.177362    -0.745983     1.826883
 C    -3.196974     1.969724     2.015835
 O    -3.918492     2.747097     1.179428
 C    -4.813014     3.687444     1.706871
 H    -5.559576     3.211111     2.364813
 H    -5.328935     4.140633     0.850851
 H    -4.291935     4.481793     2.268959
 C    -1.754705     0.229847     3.669442
 H    -1.211775    -0.472998     4.304218
 C    -3.209983     2.140623     3.403965
 H    -3.792328     2.943302     3.856328
 C    -2.488436     1.272675     4.222781
 H    -2.517823     1.414280     5.305993
 H     0.846920     1.723660    -0.064837
 H     0.499580     1.209770     1.574168
 C     2.587035     1.614895     1.166440
 C     2.984437     1.698638     2.506994
 H     2.292626     1.405551     3.299148
 C     3.489282     2.036016     0.184454
 H     3.185035     1.993457    -0.862982
 C     4.250929     2.169146     2.840490
 H     4.545413     2.235115     3.891040
 C     4.770036     2.500599     0.497876
 C     5.706750     2.905501    -0.603075
 H     5.265018     3.693928    -1.233245
 H     6.661372     3.281825    -0.208850
 H     5.920073     2.050743    -1.265600
 C     5.143956     2.561870     1.843838
 H     6.138340     2.928955     2.113358
 C     1.251929    -1.318156     2.817464
 H     1.010482    -0.278743     3.033532
 C     1.711257    -3.078663     1.244902
 O     1.862513    -3.413578    -0.046943
 C     2.198975    -4.725649    -0.398098
 H     3.181536    -5.013384     0.014907
 H     2.238132    -4.750423    -1.493075
 H     1.437071    -5.446871    -0.055297
 C     1.407063    -2.209335     3.881425
 H     1.292702    -1.857027     4.908993
 C     1.869093    -3.977320     2.302891
 H     2.118582    -5.020338     2.106960
 C     1.713885    -3.538796     3.618960
 H     1.840054    -4.249769     4.439104
 C     2.386122    -0.515441    -2.363260
 H     1.363252    -0.383998    -2.732166
 C     3.866362    -0.906564    -0.498129
 O     3.990067    -1.093839     0.823275
 C     5.257276    -1.156880     1.411425
 H     5.826292    -2.037579     1.064557
 H     5.088342    -1.242366     2.492016
 H     5.838370    -0.240724     1.213616
 C     3.470480    -0.484783    -3.241499
 H     3.307305    -0.323206    -4.308938
 C     4.956376    -0.886282    -1.375999
 H     5.968314    -1.032209    -0.997473
 C     4.753761    -0.672248    -2.739237
 H     5.616116    -0.657653    -3.410767
