 100
scf done:    -2462.607414
 C     2.293659    -2.539402     2.014170
 H     2.298525    -3.640994     1.992989
 H     3.319692    -2.249437     1.743280
 C     1.968072    -2.067474     3.425000
 H     2.658609    -2.495230     4.176934
 H     2.031520    -0.971000     3.525904
 H     0.947765    -2.352210     3.730051
Rh     0.840778    -1.713742     0.705386
 C     1.608712     1.723212     1.074725
 C     3.975439     0.119273     0.878176
 C     2.382165     0.590020    -1.492346
 C    -1.322800     0.914670    -0.664768
 C    -1.667513    -1.770144    -1.797577
 C    -2.409968    -1.176020     1.077708
 P    -1.110373    -0.872698    -0.242801
 P     2.211806     0.150247     0.311764
 C     0.127934    -3.408582     0.650283
 O    -0.278192    -4.480238     0.514524
 H     2.421163     2.467286     1.101951
 H     0.858292     2.124719     0.378060
 C     0.968817     1.523478     2.442358
 H     0.320589     0.628017     2.404593
 H     1.741184     1.290648     3.195195
 C     0.150441     2.722184     2.899655
 H    -0.620367     2.942176     2.136509
 H     0.790400     3.622208     2.936380
 C    -0.523918     2.518107     4.249041
 H    -1.109775     1.581777     4.222957
 H     0.249306     2.357502     5.020364
 C    -1.425966     3.672583     4.653160
 H    -1.894667     3.499339     5.633419
 H    -2.235577     3.820196     3.919497
 H    -0.863904     4.618312     4.714182
 H     3.939312    -0.219431     1.928667
 H     4.347331     1.155609     0.891189
 C     4.919696    -0.743342     0.081342
 C     6.257182    -0.346887    -0.052344
 H     6.588206     0.582620     0.420185
 C     4.516112    -1.934469    -0.537371
 H     3.475698    -2.264360    -0.446065
 C     7.167029    -1.114149    -0.776231
 H     8.205150    -0.784396    -0.864509
 C     5.425023    -2.700812    -1.265281
 H     5.087088    -3.625208    -1.739963
 C     6.752707    -2.296301    -1.387991
 H     7.462564    -2.898814    -1.959619
 H     1.380790     0.464913    -1.927631
 H     3.011741    -0.201600    -1.924832
 C     2.936796     1.952292    -1.778076
 C     4.319743     2.169644    -1.840573
 H     5.000248     1.322646    -1.724206
 C     2.084474     3.049166    -1.963630
 H     1.001049     2.899878    -1.944749
 C     4.832357     3.446528    -2.059396
 H     5.914350     3.592523    -2.107608
 C     2.594768     4.326542    -2.183208
 H     1.910233     5.166070    -2.327174
 C     3.972907     4.531671    -2.225706
 H     4.375503     5.532471    -2.398438
 H    -1.285364     1.431605     0.307915
 H    -0.402133     1.211740    -1.190145
 C    -2.537203     1.382952    -1.453852
 H    -2.444800     1.053084    -2.502492
 H    -3.454363     0.918428    -1.064504
 C    -2.696868     2.896432    -1.416743
 H    -1.795635     3.380479    -1.838307
 H    -2.750540     3.220170    -0.361719
 C    -3.935622     3.388648    -2.150564
 H    -3.888391     3.063427    -3.205244
 H    -4.820676     2.888354    -1.719713
 C    -4.115819     4.896294    -2.085516
 H    -5.020050     5.222243    -2.621522
 H    -3.256842     5.422901    -2.532115
 H    -4.205387     5.240545    -1.042484
 H    -0.976712    -2.621446    -1.873480
 H    -1.425768    -1.095986    -2.633518
 C    -3.081590    -2.258308    -1.887742
 C    -4.062704    -1.562513    -2.603888
 H    -3.797411    -0.639808    -3.123463
 C    -3.447112    -3.454233    -1.251760
 H    -2.687801    -4.031669    -0.716186
 C    -5.373659    -2.030102    -2.663603
 H    -6.122158    -1.469374    -3.228687
 C    -4.758922    -3.920716    -1.304549
 H    -5.021530    -4.853181    -0.799246
 C    -5.730387    -3.206674    -2.006273
 H    -6.758823    -3.572508    -2.049535
 H    -1.822061    -1.141510     2.007722
 H    -2.728826    -2.221128     0.952883
 C    -3.583766    -0.250764     1.168898
 C    -4.818581    -0.571225     0.590997
 H    -4.948197    -1.536371     0.098481
 C    -3.457494     0.981291     1.825894
 H    -2.515721     1.231555     2.321874
 C    -5.875835     0.335130     0.623147
 H    -6.827014     0.067125     0.156749
 C    -4.512132     1.890552     1.856528
 H    -4.388063     2.847919     2.369156
 C    -5.723918     1.575832     1.242151
 H    -6.552261     2.287931     1.261594
