  96
scf done:    -2808.496887
 C    -1.509881    -3.328196    -1.156450
 H    -1.436661    -4.310653    -0.664618
 H    -2.558278    -3.011451    -1.016683
 C    -1.180194    -3.457393    -2.636248
 H    -0.172019    -3.873515    -2.791841
 H    -1.889047    -4.118452    -3.170795
 H    -1.205088    -2.484063    -3.159750
Rh    -0.074024    -1.925540    -0.494309
 C    -2.963882    -0.315746    -1.813348
 C    -2.947644    -0.911956     1.058956
 C    -1.512585     1.318994     0.130315
 C     2.053089     0.081441     1.501683
 C     3.308606    -0.966364    -0.911686
 C     1.488856     1.140892    -1.225375
 P     1.668747    -0.416397    -0.275174
 P    -1.827843    -0.434565    -0.323135
 C     0.775485    -3.301872     0.391366
 O     1.179444    -4.092550     1.130301
 H    -2.471168     0.375582    -2.512844
 H    -2.907092    -1.313116    -2.270364
 C    -4.387452     0.055578    -1.545762
 C    -5.297197    -0.937258    -1.156943
 H    -4.966629    -1.978221    -1.113616
 C    -4.834624     1.381578    -1.583564
 H    -4.152049     2.176852    -1.888268
 C    -6.599659    -0.623067    -0.786333
 H    -7.304859    -1.392113    -0.466682
 C    -6.134821     1.716246    -1.210740
 H    -6.486079     2.749517    -1.224778
 C    -6.997410     0.707568    -0.803150
 F    -8.232378     1.023340    -0.407284
 C    -2.819638    -2.160575     1.674175
 H    -2.021716    -2.831680     1.349542
 C    -3.943287    -0.030968     1.499925
 H    -4.034878     0.956260     1.040889
 C    -3.696257    -2.520761     2.695935
 H    -3.590835    -3.494484     3.180384
 C    -4.838177    -0.384719     2.512501
 C    -5.936286     0.556630     2.915216
 H    -5.579294     1.596759     2.950454
 H    -6.764310     0.526485     2.187492
 H    -6.349650     0.300639     3.901147
 C    -4.699858    -1.645771     3.104689
 H    -5.385268    -1.940702     3.904466
 C    -1.582383     2.384409    -0.771186
 H    -1.847860     2.217682    -1.815190
 C    -1.113602     1.577215     1.447709
 H    -1.062942     0.747674     2.159694
 C    -1.289646     3.677956    -0.346792
 H    -1.353875     4.505270    -1.057307
 C    -0.796243     2.866828     1.884321
 C    -0.338933     3.099147     3.295440
 H    -0.382136     4.163618     3.565366
 H    -0.953611     2.536882     4.014041
 H     0.703227     2.764139     3.434856
 C    -0.905380     3.920288     0.969179
 H    -0.686513     4.941201     1.294666
 H     1.478889     0.998189     1.697809
 H     1.582753    -0.719093     2.090698
 C     3.500335     0.220701     1.853988
 C     4.287882    -0.928826     2.012987
 H     3.816621    -1.913403     1.960562
 C     4.129781     1.466424     1.941755
 H     3.538453     2.381570     1.856782
 C     5.663662    -0.845000     2.189163
 H     6.283268    -1.738159     2.283689
 C     5.507878     1.571738     2.120816
 H     6.007196     2.540720     2.175297
 C     6.259766     0.409712     2.218835
 F     7.586486     0.500142     2.337367
 C     3.566009    -2.321506    -1.128069
 H     2.760649    -3.049345    -1.018109
 C     4.343031    -0.038572    -1.094955
 H     4.144580     1.026452    -0.955901
 C     4.849507    -2.736487    -1.484118
 H     5.046445    -3.797441    -1.656135
 C     5.637844    -0.440641    -1.423240
 C     6.752789     0.559765    -1.519325
 H     6.367748     1.573742    -1.697926
 H     7.329211     0.587407    -0.579498
 H     7.455077     0.309390    -2.328221
 C     5.876939    -1.808558    -1.615343
 H     6.883298    -2.145821    -1.879711
 C     1.001594     1.001331    -2.533599
 H     0.715734     0.009665    -2.899084
 C     1.838436     2.407044    -0.763591
 H     2.202040     2.535043     0.256736
 C     0.886637     2.115988    -3.354785
 H     0.512018     2.004655    -4.375363
 C     1.729843     3.541274    -1.580315
 C     2.117161     4.888737    -1.047149
 H     1.515238     5.145192    -0.160828
 H     3.174179     4.906348    -0.737395
 H     1.973079     5.678914    -1.797057
 C     1.251192     3.378058    -2.881447
 H     1.159483     4.250785    -3.533838
