  52
scf done:    -1682.732663
 C    -1.388758    -2.534224     0.041102
 H    -1.200451    -3.364970     0.738365
 H    -2.420088    -2.199519     0.236175
 C    -1.261701    -2.994199    -1.402986
 H    -0.255476    -3.386255    -1.627494
 H    -1.977467    -3.803269    -1.644708
 H    -1.465851    -2.170223    -2.107687
Rh     0.084412    -1.007955     0.122072
 C    -1.490762     2.217823     0.193407
 O    -2.588810     0.207430    -1.334222
 O    -2.840688     0.163567     1.192972
 C     2.477963     1.659349     0.861645
 O     3.132037    -0.196284    -0.868659
 O     1.389001     1.605628    -1.525043
 P     1.731533     0.496712    -0.343175
 P    -1.694250     0.388499     0.031865
 C     1.174775    -2.184335     1.083775
 O     1.770066    -2.841856     1.815493
 H    -0.636981     2.452158    -0.464821
 C    -2.710748     3.010435    -0.250806
 H    -2.544286     4.088456    -0.095410
 H    -2.925689     2.854192    -1.317338
 H    -3.600405     2.722234     0.330788
 C    -1.097626     2.520414     1.637061
 H    -0.318570     1.833433     2.005622
 H    -0.713484     3.548207     1.729541
 H    -1.968932     2.421954     2.302112
 C    -3.996229     0.143260    -1.422733
 H    -4.444656    -0.127094    -0.456275
 H    -4.412172     1.109272    -1.751610
 H    -4.250813    -0.625767    -2.166580
 C    -2.625742    -0.583037     2.371899
 H    -3.442160    -1.311458     2.487687
 H    -1.663527    -1.120289     2.329236
 H    -2.624362     0.096174     3.239034
 H     1.644504     2.342043     1.100046
 C     2.868362     0.896175     2.122164
 H     3.249765     1.590377     2.886708
 H     2.012645     0.349964     2.547867
 H     3.660794     0.163163     1.905155
 C     3.628199     2.464623     0.270363
 H     3.312213     3.004960    -0.632471
 H     3.992160     3.198057     1.007337
 H     4.463548     1.803425    -0.001119
 C     3.130524    -1.359093    -1.663214
 H     2.220771    -1.962497    -1.493230
 H     3.194898    -1.099592    -2.733050
 H     4.009055    -1.963187    -1.394310
 C     0.686635     1.206728    -2.680526
 H     1.337203     0.645496    -3.371933
 H    -0.191345     0.582774    -2.432078
 H     0.339151     2.116194    -3.190402
