  76
scf done:    -3986.226307
 C     1.290323    -2.878325     2.159501
 H     1.178859    -3.851710     1.644909
 H     2.352386    -2.608800     2.030617
 C     1.024910    -3.067106     3.647619
 H     0.015050    -3.456631     3.848638
 H     1.739648    -3.776256     4.104420
 H     1.113513    -2.124040     4.210271
Rh     0.019586    -1.598346     1.008631
 C     2.468676     0.209217     2.610783
 C     3.326389    -0.841790     0.000714
 C     1.712948     1.482096     0.046181
 C    -0.799094    -0.332529    -2.238913
 C    -3.042783    -1.159910    -0.642407
 C    -1.733245     1.290869     0.012717
 P    -1.361860    -0.443294    -0.453537
 P     1.863983    -0.152527     0.875958
 C    -1.365867    -2.567101     1.750583
 O    -2.223126    -3.091830     2.309315
 H     2.814542    -0.797622     2.897897
 C     3.640032     1.171382     2.741062
 H     3.900364     1.289093     3.805221
 H     4.537226     0.800370     2.227511
 H     3.406508     2.172103     2.346765
 C     1.305038     0.556171     3.538501
 H     0.441334    -0.097604     3.338474
 H     1.613517     0.420061     4.586732
 H     0.975225     1.600450     3.434806
 C     3.280460    -2.170012    -0.440620
 H     2.386188    -2.766140    -0.241589
 C     4.469752    -0.081195    -0.284463
 H     4.515501     0.970252     0.005919
 C     4.349937    -2.736974    -1.128792
 H     4.309059    -3.772145    -1.470835
 C     5.546370    -0.634393    -0.968993
 H     6.434406    -0.040527    -1.191073
 C     5.481196    -1.965144    -1.384313
Cl     6.815448    -2.656691    -2.240022
 C     1.951760     1.595404    -1.330687
 H     2.307557     0.730163    -1.895073
 C     1.272535     2.620680     0.733103
 H     1.056793     2.572212     1.798826
 C     1.745431     2.796382    -2.003894
 H     1.924005     2.872671    -3.077765
 C     1.077606     3.832340     0.078576
 H     0.721318     4.707933     0.623056
 C     1.302853     3.910015    -1.293094
Cl     0.990416     5.394420    -2.127512
 H    -0.164921     0.569329    -2.239647
 C     0.078886    -1.530111    -2.582366
 H     0.487915    -1.424575    -3.600231
 H     0.917725    -1.633298    -1.879203
 H    -0.495265    -2.469469    -2.552598
 C    -1.923238    -0.162300    -3.253981
 H    -2.617410     0.651170    -2.999985
 H    -1.500889     0.049799    -4.249627
 H    -2.523308    -1.081015    -3.333736
 C    -4.211736    -0.392968    -0.614791
 H    -4.155655     0.683390    -0.438003
 C    -3.148614    -2.539267    -0.865353
 H    -2.247405    -3.158691    -0.859059
 C    -5.458466    -0.983690    -0.806460
 H    -6.370854    -0.385929    -0.776375
 C    -4.385152    -3.139735    -1.073642
 H    -4.465011    -4.214073    -1.246162
 C    -5.537601    -2.354628    -1.041387
Cl    -7.083289    -3.093988    -1.286553
 C    -1.806907     2.364525    -0.880086
 H    -1.655719     2.213032    -1.949316
 C    -1.911708     1.542268     1.380964
 H    -1.831335     0.710660     2.087287
 C    -2.040944     3.660149    -0.425502
 H    -2.059146     4.500317    -1.121366
 C    -2.155528     2.828467     1.849097
 H    -2.285581     3.023110     2.914951
 C    -2.206870     3.884205     0.938358
Cl    -2.427779     5.502024     1.515735
