  96
scf done:    -2010.490468
 C     0.741638    -2.381131    -2.202863
 H     0.841375    -3.466649    -2.041160
 H    -0.191346    -2.271699    -2.782498
 C     1.918807    -1.874652    -3.028213
 H     2.880030    -2.066207    -2.524207
 H     1.975811    -2.354410    -4.024421
 H     1.869891    -0.785485    -3.203998
Rh     0.763736    -1.278076    -0.388316
 C    -1.001287     0.473095    -2.952074
 C    -2.496511    -1.493878    -1.386031
 C    -1.932052     1.066857    -0.185848
 C     0.806679    -0.861012     3.112412
 C     3.154985     0.002369     1.651434
 C     0.844716     1.725041     1.817468
 P     1.308414    -0.040759     1.512709
 P    -1.151722    -0.241261    -1.233232
 C     1.678154    -2.715642     0.306677
 O     2.115640    -3.678749     0.769113
 H    -0.388539    -0.294352    -3.454159
 C    -2.285232     0.634225    -3.757189
 H    -2.041447     0.962150    -4.781058
 H    -2.843612    -0.308642    -3.842493
 H    -2.959612     1.388094    -3.326161
 C    -0.179337     1.755905    -2.910937
 H     0.773774     1.602387    -2.381837
 H     0.055100     2.095799    -3.932174
 H    -0.721081     2.574593    -2.409595
 H    -3.422531    -1.011558    -1.738965
 H    -2.176468    -2.192831    -2.175405
 C    -2.735906    -2.254345    -0.089867
 H    -1.768522    -2.664681     0.249853
 H    -3.066648    -1.556053     0.699971
 C    -3.758569    -3.372645    -0.224330
 H    -3.423859    -4.077117    -1.007270
 H    -4.718960    -2.958752    -0.583878
 C    -3.990056    -4.133614     1.073816
 H    -3.026150    -4.539600     1.427807
 H    -4.318381    -3.424193     1.854508
 C    -5.004338    -5.258304     0.944740
 H    -5.148465    -5.788267     1.898511
 H    -4.682707    -6.001307     0.197272
 H    -5.987256    -4.876036     0.624695
 H    -1.931228     0.625283     0.824976
 H    -1.203333     1.889804    -0.141349
 C    -3.315131     1.612816    -0.506942
 H    -3.300160     2.140422    -1.474264
 H    -4.037582     0.786907    -0.622451
 C    -3.817428     2.568277     0.568245
 H    -3.088859     3.390776     0.693147
 H    -3.839992     2.042194     1.540323
 C    -5.192125     3.152952     0.276975
 H    -5.163938     3.674356    -0.696317
 H    -5.915990     2.328233     0.151645
 C    -5.682693     4.106438     1.354372
 H    -6.677154     4.513029     1.116248
 H    -4.995153     4.959031     1.476016
 H    -5.754919     3.601964     2.331369
 H     1.263726    -1.861514     3.011006
 C     1.336537    -0.210500     4.383383
 H     1.090492    -0.832810     5.259150
 H     2.429294    -0.085148     4.367061
 H     0.882588     0.778263     4.554107
 C    -0.706114    -1.044628     3.146879
 H    -1.059021    -1.546138     2.234169
 H    -1.004820    -1.652473     4.015889
 H    -1.228872    -0.077268     3.232293
 H     3.467236     0.740386     2.410034
 H     3.441106    -0.992685     2.035557
 C     3.859928     0.245631     0.321587
 H     3.420245    -0.431658    -0.432810
 H     3.650155     1.266901    -0.038223
 C     5.365069     0.034479     0.387861
 H     5.570561    -0.993803     0.737625
 H     5.804328     0.703847     1.150818
 C     6.061730     0.260713    -0.946839
 H     5.611226    -0.406226    -1.702964
 H     5.851593     1.288017    -1.294432
 C     7.563950     0.035497    -0.892694
 H     8.036936     0.206041    -1.871758
 H     7.801649    -0.995292    -0.584077
 H     8.044510     0.713229    -0.168488
 H    -0.245454     1.741343     1.977021
 H     1.305507     2.057533     2.762187
 C     1.216709     2.674067     0.686458
 H     2.310059     2.816032     0.664509
 H     0.961779     2.209321    -0.281119
 C     0.538657     4.032823     0.792644
 H     0.793637     4.498210     1.762036
 H    -0.558180     3.890927     0.814445
 C     0.898332     4.983217    -0.340543
 H     1.991577     5.138794    -0.349620
 H     0.660062     4.499675    -1.304479
 C     0.188633     6.324288    -0.250866
 H     0.467161     6.989339    -1.082199
 H     0.434786     6.844981     0.688556
 H    -0.906057     6.198682    -0.278105
