  92
scf done:    -5716.077868
 C     0.385228     1.781039    -3.649538
 H    -0.034580     2.569285    -4.280103
 H     1.463700     1.890114    -3.481886
 C    -0.207862     0.503426    -3.612511
 H    -1.083139     0.283135    -4.229309
 H     0.420337    -0.363691    -3.390278
 H    -1.854094     1.981191    -2.753992
Co    -0.703429     1.559974    -1.959230
 C     2.384763     2.149026    -0.507032
 O     0.604315     0.595657     0.790109
 O     1.776952    -0.355257    -1.311599
 C    -2.415943     0.226778     0.692158
 O    -3.706864     0.806409    -1.633497
 O    -2.348424    -1.279984    -1.541333
 P    -2.199720     0.349710    -1.120543
 P     0.985109     1.008523    -0.781284
 C    -0.947953     3.204925    -1.465103
 O    -1.188993     4.301533    -1.216764
 H     3.162741     1.600388     0.050315
 H     2.817935     2.383962    -1.492924
 C     1.977794     3.419151     0.230564
 H     1.345612     4.042877    -0.419429
 H     1.344980     3.160682     1.098034
 C     3.174377     4.232228     0.703584
 H     3.810526     4.486177    -0.163377
 H     3.806985     3.607805     1.361818
 C     2.780550     5.506018     1.437913
 H     2.151042     6.124219     0.774323
 H     2.136654     5.242656     2.296009
 C     3.972173     6.316988     1.919738
 H     3.655198     7.229748     2.446055
 H     4.612878     6.624368     1.077707
 H     4.599483     5.734034     2.613319
 C     1.385047    -0.135141     1.640791
 C     2.311857     0.483378     2.480414
 H     2.423811     1.568484     2.461297
 C     1.211422    -1.518323     1.684146
 H     0.480239    -1.980879     1.022863
 C     3.086856    -0.289677     3.342096
 H     3.819375     0.178844     4.001090
 C     1.982425    -2.295382     2.541894
 H     1.861617    -3.379956     2.559561
 C     2.925811    -1.675394     3.362528
Cl     3.902930    -2.633879     4.422246
 C     3.115089    -0.540039    -1.533568
 C     3.934668    -1.073994    -0.538562
 H     3.511899    -1.319839     0.435673
 C     3.640096    -0.243065    -2.792203
 H     2.979093     0.153819    -3.565918
 C     5.283918    -1.296160    -0.798822
 H     5.933216    -1.713336    -0.027597
 C     4.988829    -0.462394    -3.054179
 H     5.409753    -0.233168    -4.034309
 C     5.807284    -0.985113    -2.053132
Cl     7.486973    -1.255990    -2.373641
 H    -3.374117    -0.273796     0.907254
 H    -1.611783    -0.442409     1.034637
 C    -2.296209     1.565040     1.406667
 H    -1.442899     2.117326     0.984622
 H    -3.188340     2.182857     1.207960
 C    -2.084401     1.416061     2.905303
 H    -1.217032     0.752789     3.074941
 H    -2.951267     0.903314     3.360260
 C    -1.843180     2.742481     3.611112
 H    -0.987688     3.250309     3.130078
 H    -2.710639     3.406415     3.448960
 C    -1.578617     2.593268     5.100282
 H    -1.402986     3.566640     5.582885
 H    -0.692921     1.963947     5.285200
 H    -2.430488     2.117432     5.612187
 C    -4.878341     0.331246    -1.111660
 C    -5.652124     1.184907    -0.324122
 H    -5.294282     2.198617    -0.134972
 C    -5.325176    -0.961911    -1.392045
 H    -4.714814    -1.608956    -2.021502
 C    -6.864353     0.746525     0.199420
 H    -7.476919     1.406420     0.815664
 C    -6.535757    -1.404424    -0.866150
 H    -6.896671    -2.412327    -1.077510
 C    -7.298116    -0.551200    -0.069170
Cl    -8.802980    -1.105672     0.586885
 C    -1.593386    -2.282459    -1.013488
 C    -2.080648    -3.018299     0.071940
 H    -3.056456    -2.765867     0.490545
 C    -0.359972    -2.614171    -1.576784
 H     0.006650    -2.039059    -2.424537
 C    -1.330108    -4.061602     0.605491
 H    -1.699323    -4.634401     1.457533
 C     0.396355    -3.655360    -1.046673
 H     1.370953    -3.902914    -1.469923
 C    -0.087354    -4.366323     0.050075
Cl     0.879040    -5.623826     0.753911
