  86
scf done:    -3799.648019
 C    -0.217561    -2.520511    -2.344261
 H    -0.488148    -3.570206    -2.188761
 H    -1.023956    -1.897878    -2.744103
 C     1.124700    -2.176733    -2.594302
 H     1.896959    -2.951484    -2.615777
 H     1.366980    -1.298005    -3.199682
 H     0.096937    -0.371915    -1.227190
Co     0.604360    -1.660569    -0.704595
 C    -2.019987    -2.219212     1.497348
 O    -0.876133     0.220064     1.276572
 O    -2.342705    -0.613141    -0.657673
 C     2.364996     0.447705     1.300308
 O     3.688144    -1.098765    -0.512146
 O     2.444427     0.911993    -1.347039
 P     2.208978    -0.394491    -0.313614
 P    -1.107754    -1.141881     0.326414
 C     1.174843    -3.097581     0.118404
 O     1.563308    -4.026948     0.671329
 H    -2.328636    -3.108549     0.924183
 C    -1.183577    -2.609501     2.706188
 H    -0.856995    -1.722205     3.269005
 H    -0.282934    -3.170698     2.418979
 H    -2.946182    -1.702626     1.797698
 H    -1.765857    -3.246675     3.388411
 C    -1.855764     1.126414     1.574721
 C    -2.589796     1.023223     2.754211
 H    -2.386872     0.202717     3.444880
 C    -2.098519     2.179337     0.691231
 H    -1.515769     2.242320    -0.228336
 C    -3.576332     1.967600     3.037239
 H    -4.152852     1.875701     3.961804
 C    -3.082083     3.114852     0.989292
 H    -3.267708     3.932117     0.286363
 C    -3.844159     3.026421     2.163444
 C    -4.892830     4.053539     2.478929
 H    -5.572927     3.706183     3.269517
 H    -5.497495     4.296774     1.592146
 H    -4.435304     4.994714     2.826590
 C    -3.645785    -1.028969    -0.649311
 C    -4.631696    -0.251070    -0.043192
 H    -4.352125     0.678441     0.454374
 C    -3.994346    -2.218417    -1.291155
 H    -3.212165    -2.812466    -1.768981
 C    -5.958147    -0.674544    -0.080185
 H    -6.723185    -0.058920     0.401329
 C    -5.323895    -2.628291    -1.314538
 H    -5.584299    -3.564448    -1.816463
 C    -6.332113    -1.866113    -0.711509
 C    -7.768719    -2.298689    -0.769770
 H    -8.351581    -1.874086     0.060302
 H    -7.862741    -3.393869    -0.727372
 H    -8.245254    -1.967511    -1.707835
 H     1.496817     1.124375     1.346665
 C     2.337241    -0.524191     2.468246
 H     3.195602    -1.211693     2.446830
 H     1.417700    -1.125874     2.447343
 H     3.281522     1.059159     1.290146
 H     2.364006     0.017761     3.425074
 C     4.891502    -0.586847    -0.100358
 C     5.635972    -1.328899     0.816827
 H     5.227520    -2.273060     1.183110
 C     5.395892     0.614822    -0.597778
 H     4.808075     1.179715    -1.321384
 C     6.876298    -0.862912     1.240222
 H     7.450028    -1.452756     1.960703
 C     6.637318     1.068929    -0.157090
 H     7.023918     2.014323    -0.548264
 C     7.401216     0.345446     0.765026
 C     8.753045     0.827701     1.206007
 H     8.942964     0.585979     2.262353
 H     8.853260     1.915574     1.082075
 H     9.555532     0.354911     0.615135
 C     1.493340     1.867428    -1.568369
 C     1.490985     3.037475    -0.808194
 H     2.242552     3.166482    -0.027409
 C     0.545451     1.701937    -2.581505
 H     0.559880     0.792095    -3.182274
 C     0.541317     4.026030    -1.055398
 H     0.547568     4.935078    -0.448013
 C    -0.402054     2.694483    -2.811533
 H    -1.145883     2.545116    -3.598899
 C    -0.426317     3.872552    -2.053893
 C    -1.453808     4.935523    -2.316227
 H    -1.508086     5.655166    -1.486950
 H    -2.454760     4.499155    -2.456135
 H    -1.218286     5.502783    -3.231921
