  76
scf done:    -3420.300361
 C    -0.807201    -2.464161    -1.719471
 H    -1.566110    -3.211377    -1.464617
 H    -1.150148    -1.734027    -2.459423
 C     0.564548    -2.793229    -1.639222
 H     0.853419    -3.806027    -1.335835
 H     1.285572    -2.309279    -2.304968
 H     0.374561    -0.491433    -1.039720
Co     0.029995    -1.592745    -0.110164
 C    -1.729756    -0.018142     2.314677
 C    -1.626581     1.394067    -0.184568
 C    -3.288980    -0.895618     0.139559
 C     2.160686    -1.182074     2.508538
 C     3.391416    -0.999535    -0.004810
 C     1.694697     1.128756     0.874604
 P     1.756935    -0.700337     0.778356
 P    -1.585910    -0.301842     0.502818
 C    -0.177694    -2.881162     1.052587
 O    -0.267767    -3.715179     1.843448
 H    -1.778016    -1.005565     2.795812
 H    -0.830478     0.503365     2.674407
 H    -2.628700     0.553414     2.587030
 C    -1.804714     2.539277     0.593084
 H    -1.916637     2.463394     1.675489
 C    -1.481855     1.547864    -1.570712
 H    -1.326037     0.662401    -2.191984
 C    -1.831848     3.802366     0.002637
 H    -1.966140     4.684448     0.635090
 C    -1.521378     2.806683    -2.154999
 H    -1.410117     2.899723    -3.239181
 C    -1.688137     3.961495    -1.376999
 C    -1.672457     5.322817    -2.007623
 H    -0.641162     5.633797    -2.246517
 H    -2.239016     5.338308    -2.950765
 H    -2.099362     6.083575    -1.338617
 C    -4.303937    -0.063853    -0.341852
 H    -4.097019     0.989983    -0.541092
 C    -3.591970    -2.241805     0.383429
 H    -2.813508    -2.914654     0.751218
 C    -5.583338    -0.567003    -0.573253
 H    -6.360419     0.102054    -0.953984
 C    -4.873465    -2.733464     0.164971
 H    -5.085884    -3.786632     0.370312
 C    -5.893272    -1.907116    -0.325750
 C    -7.262468    -2.456136    -0.600585
 H    -7.274618    -3.031046    -1.541586
 H    -7.590343    -3.138056     0.198472
 H    -8.008103    -1.653913    -0.694231
 H     2.375167    -2.260152     2.504486
 H     3.037168    -0.644329     2.898072
 H     1.291088    -1.015763     3.161289
 C     3.667273    -2.285808    -0.482367
 H     2.889033    -3.050304    -0.430540
 C     4.393536    -0.027421    -0.085554
 H     4.205796     0.982803     0.285798
 C     4.912689    -2.590685    -1.021392
 H     5.107464    -3.604143    -1.383898
 C     5.634402    -0.336323    -0.638313
 H     6.403680     0.439275    -0.695055
 C     5.917264    -1.619765    -1.117776
 C     7.243030    -1.941052    -1.743023
 H     7.189786    -1.857815    -2.841583
 H     8.029103    -1.253235    -1.399811
 H     7.559541    -2.968713    -1.511086
 C     1.655998     1.832395     2.080252
 H     1.706149     1.302433     3.033536
 C     1.637324     1.862037    -0.320396
 H     1.646345     1.331319    -1.275657
 C     1.554251     3.225212     2.091319
 H     1.515452     3.751847     3.049022
 C     1.560963     3.246229    -0.304157
 H     1.518765     3.790927    -1.251216
 C     1.509099     3.956481     0.903814
 C     1.390516     5.451226     0.902853
 H     2.222010     5.918078     0.351540
 H     0.457973     5.768776     0.408818
 H     1.388785     5.859439     1.923176
