  60
scf done:    -2811.032658
 C    -0.846072    -2.441089    -1.306858
 H    -1.599167    -3.037551    -0.779840
 H    -1.145752    -2.155181    -2.320757
 C     0.527125    -2.645918    -1.028932
 H     0.818620    -3.398994    -0.287239
 H     1.259772    -2.520623    -1.831057
 H     0.205742    -0.322553    -1.567119
Co    -0.103709    -0.905076    -0.240267
 C    -1.717085     1.647978    -1.774201
 C    -3.409138    -0.411974    -0.766249
 C    -2.262937     1.594489     1.043249
 C     1.862422     0.596986     2.055202
 C     3.251928    -0.965767     0.057803
 C     2.081271     1.775331    -0.535803
 P     1.737286     0.119424     0.279628
 P    -1.791905     0.456708    -0.376739
 C    -0.358541    -1.602991     1.340629
 O    -0.462541    -2.104546     2.373592
 H    -0.767158     2.195604    -1.735852
 H    -1.728346     1.070429    -2.710104
 H    -2.549147     2.367054    -1.776233
 H    -3.113496    -1.019616    -1.638499
 C    -3.834265    -1.370826     0.339811
 H    -4.603772    -2.064891    -0.034030
 H    -2.990439    -1.969586     0.709628
 H    -4.274267    -0.830829     1.192578
 C    -4.566728     0.488363    -1.180750
 H    -4.337427     1.096978    -2.066516
 H    -5.447604    -0.126441    -1.427771
 H    -4.871869     1.169185    -0.369594
 H    -3.316606     1.871586     0.862555
 C    -2.164170     0.894888     2.393718
 H    -2.569306     1.543168     3.187637
 H    -2.708175    -0.057373     2.427548
 H    -1.116617     0.675225     2.645639
 C    -1.436425     2.875576     1.056962
 H    -1.574151     3.485007     0.153090
 H    -1.717207     3.497891     1.921872
 H    -0.362278     2.652494     1.153784
 H     1.692068    -0.297205     2.672030
 H     2.825013     1.044875     2.335474
 H     1.059023     1.312467     2.281783
 H     2.829197    -1.949349     0.322923
 C     3.685025    -1.033509    -1.402869
 H     4.335701    -1.907308    -1.566310
 H     2.826072    -1.119548    -2.082687
 H     4.260448    -0.140504    -1.690987
 C     4.439318    -0.704056     0.977523
 H     4.175135    -0.795997     2.040244
 H     5.230236    -1.445098     0.775190
 H     4.879824     0.291781     0.822305
 H     1.211920     2.348668    -0.164983
 C     3.345401     2.496687    -0.079459
 H     3.358991     3.520371    -0.487900
 H     3.425040     2.580926     1.013198
 H     4.250621     1.992054    -0.449560
 C     1.993701     1.765538    -2.058884
 H     1.163564     1.138527    -2.412309
 H     1.841868     2.790899    -2.433080
 H     2.918676     1.386673    -2.515293
