  82
scf done:    -3498.854631
 C     0.301178    -2.311493     1.643541
 H     0.855258    -3.133080     1.177997
 H     0.753009    -1.951308     2.573811
 C    -1.096078    -2.242907     1.463826
 H    -1.601866    -2.990805     0.846550
 H    -1.721117    -1.824510     2.259254
 H    -0.306103     0.030341     1.612424
Co    -0.163448    -0.800464     0.387472
 C     1.258781     2.286668     0.794048
 C     2.866434     0.130842     1.631901
 C     2.462461     0.668261    -1.232904
 C    -1.728346     1.856206    -1.103465
 C    -3.093386    -0.634397    -1.439873
 C    -3.090589     0.619659     1.190144
 P    -1.953210     0.224392    -0.237567
 P     1.538577     0.502556     0.383860
 C     0.213203    -1.633659    -1.097134
 O     0.539472    -2.127665    -2.087729
 H     0.670820     2.709769    -0.034954
 C     0.570940     2.553511     2.120962
 H     1.146876     2.152656     2.969107
 H    -0.423500     2.085825     2.157388
 H     2.241665     2.783438     0.763770
 H     0.451354     3.635734     2.285550
 H     2.314715    -0.143953     2.546948
 H     3.401823     1.068838     1.848095
 C     3.872609    -0.933728     1.290378
 C     5.197652    -0.784042     1.720061
 H     5.474956     0.102796     2.296434
 C     3.545134    -2.068475     0.540047
 H     2.515666    -2.204091     0.207234
 C     6.168063    -1.730765     1.402936
 H     7.196079    -1.588744     1.745514
 C     4.515860    -3.014006     0.213300
 H     4.237044    -3.886293    -0.382906
 C     5.832017    -2.849424     0.640772
 H     6.592926    -3.589632     0.382330
 H     1.695804     1.031296    -1.937511
 H     2.700213    -0.359347    -1.543924
 C     3.685199     1.532196    -1.276455
 C     4.961883     0.973040    -1.131188
 H     5.063666    -0.107205    -1.010517
 C     3.589068     2.917888    -1.469491
 H     2.606460     3.371498    -1.623943
 C     6.100233     1.775808    -1.143372
 H     7.083852     1.314782    -1.024618
 C     4.726070     3.722578    -1.484500
 H     4.625821     4.799800    -1.639014
 C     5.987790     3.154841    -1.312253
 H     6.880850     3.784191    -1.323137
 H    -0.796555     1.725375    -1.677908
 C    -2.821446     2.408738    -2.007269
 H    -3.773444     2.551050    -1.478849
 H    -3.007251     1.752172    -2.869620
 H    -1.487953     2.576646    -0.304686
 H    -2.517220     3.388525    -2.407607
 H    -2.582039    -0.571588    -2.413347
 H    -4.019094    -0.043776    -1.520589
 C    -3.386711    -2.066783    -1.111198
 C    -4.371867    -2.416105    -0.178604
 H    -4.976412    -1.636902     0.290453
 C    -2.657930    -3.098670    -1.715571
 H    -1.895542    -2.854489    -2.457667
 C    -4.598780    -3.746878     0.165141
 H    -5.369355    -3.992029     0.899960
 C    -2.881038    -4.430327    -1.374578
 H    -2.292595    -5.215663    -1.855001
 C    -3.847202    -4.760695    -0.425461
 H    -4.019548    -5.804534    -0.153465
 H    -2.409521     0.897194     2.007013
 H    -3.534052    -0.345288     1.477717
 C    -4.123383     1.679108     0.978467
 C    -5.386137     1.392046     0.442447
 H    -5.658049     0.357448     0.221677
 C    -3.825588     3.015509     1.281542
 H    -2.856081     3.257750     1.726162
 C    -6.304443     2.407591     0.183427
 H    -7.281256     2.158793    -0.238296
 C    -4.739980     4.033220     1.023826
 H    -4.482850     5.067489     1.265173
 C    -5.981751     3.734344     0.463870
 H    -6.700164     4.531255     0.258784
