  80
scf done:    -3720.943675
 C    -0.564805    -2.038488     2.245875
 H     0.100933    -2.169338     3.105656
 H    -1.627538    -2.019819     2.511096
 C    -0.181525    -2.519809     0.967777
 H     0.765192    -3.057808     0.840472
 H    -0.959886    -2.910770     0.302087
 H     0.435465     0.305861    -0.106311
Co    -0.027418    -0.510494     1.042881
 C    -1.221829    -1.129393    -2.003508
 C    -3.178639    -1.144829     0.104882
 C    -2.091093     1.334039    -0.912076
 C     2.922451    -1.667175     2.224812
 C     2.667266    -1.423519    -0.631628
 C     3.085901     0.898770     1.008098
 P     2.099647    -0.650926     0.934423
 P    -1.597658    -0.356401    -0.383513
 C    -0.437828     0.620055     2.300752
 O    -0.749202     1.309259     3.174939
 H    -0.368063    -0.574975    -2.415129
 H    -0.899276    -2.168904    -1.857594
 H    -2.075298    -1.076749    -2.692697
 C    -3.624439    -2.351096    -0.432597
 H    -3.072230    -2.809460    -1.255423
 C    -3.909070    -0.568771     1.165139
 O    -3.429554     0.595071     1.635806
 C    -4.001085     1.184868     2.768594
 H    -5.035892     1.518472     2.575376
 H    -3.375790     2.051786     3.012093
 H    -3.997948     0.494235     3.629317
 C    -4.769454    -2.984985     0.054536
 H    -5.097823    -3.931391    -0.380143
 C    -5.058504    -1.194794     1.654938
 H    -5.626189    -0.747136     2.471171
 C    -5.481754    -2.401733     1.096389
 H    -6.379664    -2.885877     1.488229
 C    -1.316641     2.423528    -0.517122
 H    -0.437599     2.222643     0.097698
 C    -3.226510     1.570979    -1.714711
 O    -3.927799     0.488355    -2.105463
 C    -5.169393     0.648342    -2.728144
 H    -5.856986     1.254198    -2.113016
 H    -5.590038    -0.358846    -2.843161
 H    -5.076125     1.115044    -3.724894
 C    -1.645687     3.727531    -0.887199
 H    -1.022436     4.563133    -0.561972
 C    -3.571990     2.877474    -2.076159
 H    -4.453742     3.066288    -2.689207
 C    -2.779511     3.947834    -1.661367
 H    -3.059292     4.963027    -1.954184
 H     2.425949    -2.644227     2.309224
 H     3.994271    -1.796942     2.026401
 H     2.781237    -1.133978     3.175771
 C     3.103725    -2.747057    -0.683948
 H     3.199442    -3.317502     0.241753
 C     2.573129    -0.705279    -1.843587
 O     2.157150     0.572060    -1.745135
 C     1.992046     1.352827    -2.892355
 H     2.947843     1.506805    -3.423469
 H     1.607710     2.322908    -2.552682
 H     1.262132     0.907196    -3.591220
 C     3.430096    -3.364151    -1.893223
 H     3.764280    -4.403728    -1.903034
 C     2.903045    -1.314560    -3.056770
 H     2.831337    -0.756596    -3.990876
 C     3.328001    -2.643696    -3.077081
 H     3.581654    -3.110527    -4.031922
 C     2.450231     2.101351     1.309230
 H     1.380274     2.080444     1.520689
 C     4.469062     0.920027     0.730869
 O     5.049654    -0.265470     0.456301
 C     6.360043    -0.303576    -0.030349
 H     6.473279     0.313058    -0.938800
 H     6.565865    -1.351192    -0.284632
 H     7.092333     0.033522     0.724482
 C     3.146835     3.309510     1.339891
 H     2.624550     4.236877     1.583631
 C     5.171272     2.129386     0.745118
 H     6.239171     2.151137     0.526044
 C     4.506502     3.317009     1.050504
 H     5.068249     4.254479     1.062670
