 100
scf done:    -4131.325478
 C    -1.339307    -2.521741     1.802264
 H    -1.091224    -3.565684     1.582039
 H    -0.810404    -2.112529     2.669760
 C    -2.620305    -2.028356     1.471280
 H    -3.355308    -2.684231     0.995653
 H    -3.075135    -1.247561     2.088808
 H    -0.970810    -0.226724     1.140576
Co    -1.235148    -1.324632     0.182437
 C     1.790661     0.148008     0.873986
 C     1.729438    -2.737041     0.536325
 C     1.570337    -0.977354    -1.795624
 C    -1.295710     1.493180    -1.626366
 C    -3.726779     0.000228    -1.812734
 C    -3.161335     1.443109     0.581851
 P    -2.313130     0.313274    -0.633364
 P     0.896239    -1.170067    -0.044073
 C    -1.415608    -2.485447    -1.104150
 O    -1.479498    -3.214026    -1.998187
 H     2.856114     0.111099     0.595232
 H     1.407234     1.107170     0.487681
 C     1.620617     0.096076     2.383719
 H     0.552625     0.201251     2.634786
 H     1.922931    -0.894246     2.768553
 C     2.431568     1.168737     3.097562
 H     2.080428     2.164842     2.774882
 H     3.487446     1.107157     2.774523
 C     2.365724     1.072683     4.614847
 H     1.310144     1.110425     4.933070
 H     2.736507     0.080369     4.928884
 C     3.149885     2.165286     5.322107
 H     3.097876     2.058888     6.416283
 H     2.752873     3.159057     5.065076
 H     4.213890     2.143855     5.035560
 H     1.497645    -2.793882     1.610686
 H     1.150469    -3.543962     0.062953
 C     3.190836    -2.913683     0.274895
 C     3.629310    -3.732903    -0.774626
 H     2.892725    -4.267922    -1.380255
 C     4.163969    -2.267557     1.051366
 H     3.857313    -1.644004     1.893699
 C     4.983890    -3.888606    -1.062452
 H     5.326896    -4.527237    -1.878346
 C     5.520820    -2.406560     0.776381
 H     6.280012    -1.901460     1.376133
 C     5.915682    -3.213049    -0.284763
 F     7.213257    -3.348012    -0.554161
 H     1.869421    -1.985044    -2.122039
 H     0.701596    -0.699019    -2.407529
 C     2.686675     0.003290    -2.004700
 C     2.408298     1.356462    -2.241004
 H     1.371294     1.688784    -2.309868
 C     4.030760    -0.385147    -1.939619
 H     4.281498    -1.432414    -1.768360
 C     3.424604     2.295509    -2.391318
 H     3.206462     3.348906    -2.577014
 C     5.061239     0.539478    -2.087125
 H     6.108197     0.235005    -2.035494
 C     4.745438     1.874001    -2.306278
 F     5.726243     2.765838    -2.445165
 H    -0.499785     1.817116    -0.934257
 H    -0.792915     0.864998    -2.379835
 C    -1.941402     2.693917    -2.301623
 H    -2.621586     2.356043    -3.101504
 H    -2.575248     3.248855    -1.588152
 C    -0.911506     3.648483    -2.893180
 H    -0.277165     3.099911    -3.613226
 H    -0.227441     3.984932    -2.091665
 C    -1.518883     4.862973    -3.580637
 H    -2.199606     4.522453    -4.380748
 H    -2.155133     5.406087    -2.859294
 C    -0.478464     5.807780    -4.159633
 H    -0.944958     6.675340    -4.649874
 H     0.148962     5.299678    -4.909476
 H     0.193566     6.191257    -3.374967
 H    -4.140244     0.969557    -2.132454
 H    -3.270338    -0.474494    -2.695960
 C    -4.808390    -0.868213    -1.245105
 C    -4.774715    -2.260220    -1.395709
 H    -3.969073    -2.722187    -1.968812
 C    -5.869584    -0.309836    -0.520696
 H    -5.936165     0.775637    -0.410749
 C    -5.751136    -3.072708    -0.826894
 H    -5.727910    -4.157831    -0.941816
 C    -6.854056    -1.107170     0.057401
 H    -7.683059    -0.676061     0.621384
 C    -6.777575    -2.485059    -0.098395
 F    -7.714681    -3.256650     0.450908
 H    -3.693103     2.223921     0.015127
 H    -3.924248     0.819877     1.070436
 C    -2.254132     2.051973     1.605605
 C    -2.132680     1.485660     2.881295
 H    -2.717927     0.598492     3.131777
 C    -1.491303     3.192048     1.319580
 H    -1.577249     3.671095     0.341736
 C    -1.286681     2.031310     3.841812
 H    -1.202134     1.597217     4.839459
 C    -0.628837     3.745451     2.263191
 H    -0.035026     4.634754     2.044692
 C    -0.539670     3.155692     3.516657
 F     0.281545     3.681884     4.428034
