  76
scf done:    -3420.298809
 C    -0.245429     1.454169     2.992119
 H     0.044810     0.988718     3.940494
 H     0.356648     2.328695     2.726235
 C    -1.588668     1.382953     2.557610
 H    -2.327900     0.855674     3.171372
 H    -2.005633     2.195855     1.955772
 H    -0.132601     1.318063     0.595349
Co    -0.417642     0.148749     1.471154
 C     2.826308     0.924996     1.610274
 C     2.299495    -1.856850     1.091897
 C     1.887501     0.115973    -1.027796
 C    -1.349295    -1.821916    -1.140431
 C    -3.459498    -0.960412     0.630227
 C    -2.293967     0.828436    -1.356349
 P    -1.810008    -0.411720    -0.053496
 P     1.582731    -0.150114     0.807770
 C    -0.586357    -1.298450     2.430210
 O    -0.677276    -2.281358     3.026210
 H     2.523248     1.970659     1.467543
 H     2.806796     0.708057     2.688144
 H     3.839409     0.789898     1.207651
 H     1.531077    -2.553121     0.722092
 H     2.317450    -1.970784     2.187880
 C     3.628619    -2.163384     0.482132
 C     4.824477    -1.755776     1.090031
 H     4.788929    -1.249310     2.057455
 C     3.710443    -2.845916    -0.740041
 H     2.792099    -3.201155    -1.216534
 C     6.054527    -1.991241     0.481340
 H     6.972834    -1.659897     0.972065
 C     4.939937    -3.087208    -1.350377
 H     4.977112    -3.620958    -2.303071
 C     6.118036    -2.651545    -0.745764
 H     7.083257    -2.836711    -1.222541
 H     0.925292     0.463470    -1.426617
 H     2.104266    -0.864154    -1.476921
 C     2.969411     1.095669    -1.365722
 C     4.281997     0.676186    -1.614144
 H     4.520479    -0.389326    -1.593920
 C     2.692393     2.468808    -1.392237
 H     1.673291     2.811258    -1.192386
 C     5.287133     1.604219    -1.878739
 H     6.304596     1.254503    -2.070308
 C     3.695772     3.397709    -1.656276
 H     3.457220     4.464003    -1.673111
 C     4.999929     2.968181    -1.899357
 H     5.788964     3.694817    -2.106969
 H    -1.177387    -2.710667    -0.515419
 H    -2.116639    -2.056673    -1.893091
 H    -0.404632    -1.574914    -1.646344
 H    -3.919516    -0.047677     1.038868
 H    -3.203559    -1.590513     1.495409
 C    -4.372625    -1.692740    -0.301955
 C    -4.297223    -3.089501    -0.405472
 H    -3.595059    -3.633357     0.232597
 C    -5.298970    -1.025170    -1.114406
 H    -5.402947     0.059294    -1.037396
 C    -5.103325    -3.791315    -1.297420
 H    -5.026938    -4.879871    -1.355413
 C    -6.107253    -1.723566    -2.009958
 H    -6.823737    -1.178512    -2.629288
 C    -6.009653    -3.109801    -2.109214
 H    -6.643990    -3.658468    -2.809167
 H    -3.157483     0.424935    -1.909212
 H    -1.444838     0.854957    -2.057446
 C    -2.561278     2.200282    -0.819285
 C    -1.538229     3.155663    -0.778398
 H    -0.561697     2.906275    -1.198584
 C    -3.811341     2.552841    -0.296416
 H    -4.633562     1.835031    -0.327912
 C    -1.746589     4.409693    -0.211272
 H    -0.930054     5.135317    -0.185973
 C    -4.026451     3.807324     0.270733
 H    -5.009908     4.056507     0.676189
 C    -2.991486     4.738677     0.323460
 H    -3.156028     5.720315     0.773516
