 104
scf done:    -4035.341749
 C    -0.820269    -2.690293     2.201399
 H    -1.653483    -2.617797     2.909189
 H    -0.965093    -3.443051     1.421640
 C     0.481735    -2.359873     2.625958
 H     0.633590    -2.046745     3.664061
 H     1.348665    -2.851052     2.176128
 H     0.394874    -1.647943     0.365222
Co    -0.264839    -0.896226     1.434535
 C    -3.536149    -1.381159     0.564125
 O    -2.068562     0.433443    -0.836542
 O    -1.778836    -2.149933    -1.122152
 C     0.396419     2.216462     0.554729
 O     2.551170     1.032080     1.369224
 O     1.529217     0.305696    -0.877090
 P     1.101264     0.546463     0.712687
 P    -1.833677    -0.968853     0.051205
 C    -0.924409     0.097756     2.730580
 O    -1.322312     0.751907     3.586903
 H    -4.137413    -1.507928    -0.350182
 H    -3.463182    -2.373374     1.037873
 C    -4.175249    -0.369680     1.501215
 H    -3.558144    -0.245834     2.405946
 H    -4.204260     0.617743     1.012552
 C    -5.590059    -0.758243     1.905987
 H    -5.572187    -1.746144     2.401410
 H    -6.205101    -0.888083     0.997206
 C    -6.251854     0.259315     2.824256
 H    -5.627583     0.392967     3.725384
 H    -6.262770     1.242466     2.321088
 C    -7.665377    -0.123921     3.230730
 H    -8.117222     0.631124     3.891645
 H    -7.679870    -1.086379     3.767189
 H    -8.319380    -0.229576     2.350150
 C    -3.150073     0.751905    -1.618393
 C    -3.603383    -0.103131    -2.624535
 H    -3.099480    -1.056887    -2.781884
 C    -3.759136     1.997971    -1.389964
 C    -3.236227     2.927321    -0.336988
 H    -3.976528     3.701692    -0.093638
 H    -2.969687     2.391932     0.585703
 H    -2.319912     3.436262    -0.677248
 C    -4.691740     0.270645    -3.409786
 H    -5.044207    -0.401789    -4.195239
 C    -4.849178     2.343159    -2.194259
 H    -5.338685     3.306381    -2.025659
 C    -5.319975     1.494334    -3.194118
 H    -6.174912     1.791652    -3.805245
 C    -0.687620    -2.459725    -1.892632
 C    -0.048552    -1.481769    -2.654029
 H    -0.380790    -0.446216    -2.581163
 C    -0.289970    -3.804889    -1.945635
 C    -0.994079    -4.845344    -1.129585
 H    -0.647846    -4.831885    -0.082914
 H    -2.079080    -4.670688    -1.110798
 H    -0.803241    -5.851958    -1.526145
 C     1.021765    -1.832505    -3.472172
 H     1.534175    -1.061646    -4.051167
 C     0.783141    -4.128653    -2.782017
 H     1.106737    -5.171755    -2.837478
 C     1.440818    -3.159079    -3.536465
 H     2.282280    -3.439097    -4.173700
 H    -0.420115     2.072931    -0.171136
 H    -0.089531     2.438355     1.520192
 C     1.333612     3.338962     0.143754
 H     2.064900     3.514335     0.948531
 H     1.924679     3.027233    -0.731878
 C     0.596307     4.630635    -0.179391
 H    -0.028959     4.924786     0.683560
 H    -0.109174     4.451183    -1.011675
 C     1.523473     5.780438    -0.547413
 H     2.223913     5.959307     0.287351
 H     2.152858     5.475775    -1.402494
 C     0.787314     7.066718    -0.884902
 H     1.483482     7.878272    -1.145469
 H     0.177317     7.412267    -0.034674
 H     0.106757     6.925009    -1.740052
 C     3.513909     0.329903     2.042896
 C     3.183393    -0.554503     3.065107
 H     2.132936    -0.693125     3.310787
 C     4.851961     0.594972     1.706287
 C     5.196172     1.610993     0.662286
 H     4.914442     1.267534    -0.343824
 H     4.657094     2.554247     0.836188
 H     6.274929     1.818110     0.662369
 C     4.188219    -1.247425     3.736197
 H     3.921870    -1.948842     4.530354
 C     5.838386    -0.110769     2.401128
 H     6.886025     0.079097     2.151673
 C     5.521321    -1.034301     3.396486
 H     6.317367    -1.571654     3.916683
 C     2.740151     0.155863    -1.483596
 C     3.133751     1.138585    -2.393088
 H     2.477854     1.997364    -2.545443
 C     3.519433    -0.996318    -1.281386
 C     3.059426    -2.104359    -0.389822
 H     2.944565    -1.779068     0.654994
 H     2.079390    -2.482325    -0.719401
 H     3.777647    -2.934755    -0.403675
 C     4.328902     1.011911    -3.095533
 H     4.628620     1.787944    -3.803477
 C     4.722842    -1.089882    -1.989044
 H     5.344391    -1.976145    -1.836448
 C     5.135452    -0.104024    -2.882858
 H     6.080287    -0.213821    -3.419580
