 108
scf done:    -3439.556091
 C     1.345242    -3.147543    -0.720809
 H     2.088042    -3.304122    -1.511048
 H     1.698187    -3.442193     0.273190
 C    -0.030100    -3.264245    -1.038580
 H    -0.316754    -3.499743    -2.069807
 H    -0.728322    -3.650515    -0.289456
 H     0.153827    -1.621157     0.694709
Co     0.469934    -1.339948    -0.728539
 C     1.278709     0.833322     1.786630
 C     3.354888    -0.961677     0.993012
 C     2.666177     1.259819    -0.697443
 C    -1.202618     1.499352    -1.153970
 C    -2.752158    -0.784383    -1.873471
 C    -2.287036    -0.269077     0.935731
 P    -1.419601    -0.285560    -0.697177
 P     1.882888    -0.089771     0.299466
 C     0.894291    -0.911438    -2.367606
 O     1.178560    -0.593671    -3.438995
 H     2.068585     1.524051     2.124517
 H     0.441671     1.464673     1.441438
 C     0.820910    -0.048025     2.940134
 H     0.204135    -0.870481     2.539543
 H     1.695560    -0.530616     3.409447
 C     0.028206     0.707167     3.997579
 H    -0.841223     1.193529     3.516659
 H     0.637397     1.532701     4.408742
 C    -0.466225    -0.178785     5.132132
 H    -1.017798    -1.033789     4.702866
 H     0.401318    -0.618336     5.655083
 C    -1.354378     0.551559     6.125832
 H    -1.688267    -0.111646     6.938104
 H    -2.255336     0.951439     5.632328
 H    -0.826734     1.402460     6.586198
 H     2.951829    -1.817249     1.559290
 H     3.863292    -0.304368     1.718155
 C     4.309412    -1.453377    -0.086669
 H     3.715773    -1.870682    -0.916125
 H     4.868883    -0.598948    -0.508940
 C     5.311843    -2.510628     0.379372
 H     4.726819    -3.360715     0.778550
 C     6.129599    -3.019956    -0.801385
 H     5.480129    -3.422924    -1.593941
 H     6.825455    -3.817031    -0.496617
 H     6.728807    -2.206072    -1.243424
 C     6.217818    -1.997517     1.492909
 H     6.937911    -2.768563     1.808258
 H     5.647004    -1.694961     2.383828
 H     6.796695    -1.121806     1.152382
 H     1.837241     1.858991    -1.111018
 H     3.099099     0.738741    -1.566124
 C     3.694786     2.160615    -0.030938
 H     3.205613     2.758298     0.756240
 H     4.460601     1.552811     0.484158
 C     4.409077     3.119331    -0.990195
 H     3.629643     3.673491    -1.546887
 C     5.238082     4.132266    -0.208758
 H     4.616076     4.706640     0.495602
 H     5.736516     4.848782    -0.879909
 H     6.023165     3.625470     0.377324
 C     5.275831     2.380474    -2.004368
 H     5.775151     3.085138    -2.687073
 H     4.693371     1.682103    -2.623497
 H     6.062402     1.799283    -1.493538
 H    -0.380089     1.864665    -0.517691
 H    -0.775714     1.456605    -2.172226
 C    -2.354535     2.492404    -1.112124
 H    -3.222935     2.103732    -1.671283
 H    -2.695519     2.626048    -0.071816
 C    -1.968965     3.852821    -1.679365
 H    -1.634888     3.729466    -2.725661
 H    -1.090453     4.240173    -1.131111
 C    -3.092331     4.878527    -1.622935
 H    -3.968207     4.484627    -2.168577
 H    -3.422761     4.995166    -0.575352
 C    -2.702797     6.233733    -2.190646
 H    -3.534403     6.952431    -2.135866
 H    -2.402521     6.152392    -3.247713
 H    -1.851783     6.667307    -1.640964
 H    -2.328664    -0.659729    -2.884877
 H    -3.580932    -0.064097    -1.784335
 C    -3.248958    -2.211235    -1.690197
 H    -2.414489    -2.898502    -1.885246
 H    -3.535449    -2.384667    -0.636621
 C    -4.433836    -2.590192    -2.582856
 H    -4.156720    -2.340223    -3.624648
 C    -4.686522    -4.091898    -2.512864
 H    -3.793228    -4.663863    -2.807673
 H    -5.515579    -4.393631    -3.171766
 H    -4.950684    -4.395470    -1.485840
 C    -5.699184    -1.813699    -2.233276
 H    -6.532344    -2.089501    -2.898158
 H    -5.559362    -0.725343    -2.317340
 H    -6.015214    -2.030748    -1.198593
 H    -1.676059     0.389274     1.576077
 H    -2.131462    -1.282352     1.335813
 C    -3.755512     0.124852     1.015421
 H    -3.940265     1.047036     0.445029
 H    -4.376878    -0.651078     0.535255
 C    -4.260043     0.340124     2.446307
 H    -3.636399     1.136463     2.897357
 C    -5.703443     0.829229     2.430589
 H    -5.810560     1.751064     1.837517
 H    -6.069844     1.037785     3.447723
 H    -6.368620     0.069603     1.986846
 C    -4.115840    -0.907351     3.310598
 H    -4.492296    -0.728803     4.329764
 H    -3.068438    -1.231248     3.399384
 H    -4.691344    -1.746729     2.884805
