 112
scf done:    -3891.690427
 C    -1.275632     1.991853    -3.407787
 H    -1.909230     1.513722    -4.163260
 H    -1.781014     2.784121    -2.845487
 C     0.120368     2.074903    -3.621052
 H     0.552772     1.665682    -4.540749
 H     0.667365     2.938785    -3.228639
 H    -0.183098     1.775024    -1.199428
Co    -0.295221     0.689148    -2.224766
 C    -2.447514     1.039090     0.435503
 C    -3.511804    -0.030528    -2.054039
 C    -1.877220    -1.713265    -0.284534
 C     2.590775    -1.081348    -1.877100
 C     2.774470     1.818306    -1.507486
 C     1.443091     0.117404     0.556421
 P     1.604412     0.368856    -1.291246
 P    -1.959279     0.024362    -1.018063
 C    -0.294561    -0.701397    -3.277936
 O    -0.274890    -1.645767    -3.938435
 H    -3.330235     0.580798     0.909763
 H    -1.626160     0.934599     1.164035
 C    -2.685574     2.507635     0.127580
 H    -1.776308     2.929614    -0.332678
 H    -3.479970     2.615535    -0.632681
 C    -3.068425     3.312003     1.361688
 H    -2.276499     3.204773     2.125285
 H    -3.977827     2.877768     1.816955
 C    -3.300743     4.788804     1.075651
 H    -2.389770     5.214910     0.619388
 H    -4.089772     4.888621     0.309023
 C    -3.681195     5.591463     2.309133
 H    -3.842801     6.653628     2.070540
 H    -2.893470     5.539246     3.078008
 H    -4.608439     5.208039     2.764948
 H    -3.661850     1.012245    -2.371628
 H    -3.217717    -0.583134    -2.959070
 C    -4.757520    -0.604709    -1.462679
 C    -5.154780    -1.911863    -1.768955
 H    -4.562911    -2.504704    -2.471690
 C    -5.553202     0.142129    -0.583089
 H    -5.271746     1.174119    -0.356900
 C    -6.304043    -2.454223    -1.196592
 H    -6.606936    -3.473459    -1.448259
 C    -6.700228    -0.388413     0.010991
 C    -7.503950     0.417531     0.989216
 H    -7.290739     0.098869     2.023129
 H    -7.268896     1.488930     0.918962
 H    -8.584686     0.290725     0.826569
 C    -7.068385    -1.702520    -0.308699
 H    -7.969227    -2.134348     0.136182
 H    -2.478335    -2.351526    -0.950627
 H    -0.830908    -2.026651    -0.411268
 C    -2.300688    -1.889232     1.146110
 C    -1.355834    -1.847840     2.177412
 H    -0.294278    -1.739070     1.947378
 C    -3.647647    -2.068485     1.490135
 H    -4.397553    -2.118741     0.699176
 C    -1.752135    -1.961467     3.508851
 H    -0.998375    -1.928990     4.299442
 C    -4.062148    -2.183777     2.819209
 C    -5.513077    -2.369632     3.159307
 H    -6.128011    -2.442349     2.251952
 H    -5.670611    -3.282475     3.755307
 H    -5.890719    -1.525865     3.759671
 C    -3.095175    -2.121251     3.830966
 H    -3.399971    -2.208644     4.877755
 H     2.027845    -1.963139    -1.526237
 H     2.468742    -1.087502    -2.973038
 C     4.061557    -1.202595    -1.501999
 H     4.649255    -0.485705    -2.100277
 H     4.216032    -0.921365    -0.450030
 C     4.620223    -2.602055    -1.715012
 H     4.530523    -2.887501    -2.779173
 H     3.998238    -3.321594    -1.153209
 C     6.066670    -2.738451    -1.261228
 H     6.692923    -2.016430    -1.815720
 H     6.129886    -2.440412    -0.199331
 C     6.626064    -4.141022    -1.433192
 H     7.671132    -4.208384    -1.094242
 H     6.597535    -4.457771    -2.488282
 H     6.041060    -4.874530    -0.855060
 H     3.389393     1.574790    -2.387199
 H     2.108208     2.636081    -1.809289
 C     3.621676     2.268931    -0.357464
 C     3.076488     3.118735     0.616805
 H     2.040383     3.454803     0.517527
 C     4.959213     1.886493    -0.225187
 H     5.403834     1.238230    -0.983273
 C     3.846196     3.543017     1.695851
 H     3.409135     4.202766     2.449373
 C     5.749987     2.303299     0.850633
 C     7.184698     1.871614     0.944439
 H     7.295698     0.804018     0.700813
 H     7.813631     2.433905     0.234694
 H     7.592281     2.037277     1.951620
 C     5.173962     3.134067     1.817241
 H     5.773028     3.469861     2.668126
 H     1.413470     1.124762     0.995985
 H     0.428343    -0.288792     0.655937
 C     2.419131    -0.762661     1.274439
 C     2.301240    -2.156379     1.203022
 H     1.471339    -2.606926     0.652286
 C     3.476444    -0.222217     2.017186
 H     3.566976     0.862786     2.099232
 C     3.243100    -2.978693     1.817620
 H     3.143410    -4.064654     1.747068
 C     4.428962    -1.031612     2.640946
 C     5.561360    -0.427811     3.420398
 H     5.475596     0.666308     3.463950
 H     5.586773    -0.813369     4.451769
 H     6.533067    -0.670953     2.961155
 C     4.307166    -2.422474     2.520892
 H     5.045142    -3.073637     2.997854
