  40
scf done:    -2797.552728
 C    -0.641951    -2.655111    -0.784622
 H    -1.354263    -3.194381    -0.150992
 H    -0.954387    -2.570611    -1.829682
 C     0.733047    -2.694566    -0.457878
 H     1.060512    -3.255794     0.424246
 H     1.486124    -2.652928    -1.250782
 H     0.227105    -0.494436    -1.440746
Co    -0.038039    -0.881027    -0.031211
 C    -1.085750     1.936310    -1.548498
 O    -2.921807     0.161894    -1.147206
 O    -2.010911     1.333403     0.945982
 C     2.714356    -0.192115     1.811819
 O     3.050418    -0.217733    -0.739887
 O     1.696671     1.745418     0.184491
 P     1.784283     0.093543     0.277520
 P    -1.491522     0.572482    -0.425834
 C    -0.482503    -1.197942     1.637722
 O    -0.779343    -1.395080     2.728102
 H    -0.168562     2.409796    -1.171321
 H    -0.889875     1.511705    -2.542312
 H    -1.905547     2.663488    -1.623433
 C    -3.685745    -0.880159    -0.584384
 H    -3.037915    -1.681896    -0.195318
 H    -4.319760    -0.507912     0.238590
 H    -4.332700    -1.291451    -1.372158
 C    -2.973060     2.359707     0.918183
 H    -2.514134     3.337311     0.690748
 H    -3.764461     2.157549     0.176679
 H    -3.430926     2.417049     1.916268
 H     2.851728    -1.276592     1.924872
 H     3.699970     0.293268     1.797243
 H     2.118071     0.175525     2.659564
 C     2.878269    -0.136210    -2.133650
 H     3.818351    -0.461407    -2.600785
 H     2.056136    -0.784597    -2.479381
 H     2.659132     0.897118    -2.454552
 C     2.824797     2.570309     0.366312
 H     3.040184     2.727195     1.436830
 H     3.719830     2.148360    -0.119928
 H     2.602029     3.546438    -0.088112
