  84
scf done:    -3125.308501
 C    -0.487927    -3.110975    -0.347799
 H    -1.438619    -3.490130     0.044144
 H    -0.396302    -3.198266    -1.435649
 C     0.677034    -3.183103     0.454638
 H     0.614389    -3.618018     1.458449
 H     1.650795    -3.329903    -0.024586
 H     0.839013    -1.155601    -0.900713
Co     0.016735    -1.290187     0.336048
 C    -0.735365     0.651191    -2.364310
 C    -2.889269    -0.885678    -1.356084
 C    -1.997847     1.426471     0.109727
 C     1.725413     0.344998     2.790199
 C     3.328902    -1.038800     0.906084
 C     2.032492     1.411995     0.135054
 P     1.702402    -0.173188     1.026199
 P    -1.342629    -0.055831    -0.783704
 C    -0.872014    -1.270684     1.837134
 O    -1.429790    -1.196877     2.843866
 H     0.121774     1.309308    -2.164125
 H    -0.383830    -0.177308    -2.995341
 H    -1.510927     1.215737    -2.902990
 H    -2.557454    -1.749533    -1.956188
 H    -3.430131    -0.208141    -2.037098
 C    -3.776389    -1.355375    -0.213464
 H    -3.159791    -1.933498     0.493597
 H    -4.153234    -0.484829     0.354793
 C    -4.971893    -2.211532    -0.637504
 H    -4.573393    -3.073910    -1.204853
 C    -5.693778    -2.752325     0.591176
 H    -5.012363    -3.328373     1.236165
 H    -6.531281    -3.409619     0.310201
 H    -6.106220    -1.928043     1.197038
 C    -5.934902    -1.454869    -1.545740
 H    -6.794792    -2.083125    -1.825484
 H    -5.453104    -1.122819    -2.477686
 H    -6.330076    -0.559898    -1.034981
 H    -1.113007     2.028964     0.379661
 H    -2.380444     1.031300     1.064589
 C    -3.037850     2.290342    -0.585709
 H    -2.623635     2.674738    -1.533215
 H    -3.913183     1.676469    -0.864661
 C    -3.532921     3.480066     0.243627
 H    -2.644603     4.067494     0.544884
 C    -4.425641     4.380707    -0.602369
 H    -3.901431     4.739601    -1.501974
 H    -4.762903     5.261788    -0.034745
 H    -5.325248     3.836780    -0.936157
 C    -4.256131     3.037552     1.511123
 H    -4.614341     3.904996     2.086631
 H    -3.610136     2.445985     2.176612
 H    -5.134853     2.418613     1.261729
 H     1.612499    -0.551491     3.417258
 H     2.651918     0.865168     3.075401
 H     0.863407     0.999367     2.987955
 H     3.198963    -1.984914     1.457973
 H     4.083999    -0.449524     1.451915
 C     3.767994    -1.320925    -0.522519
 H     2.910015    -1.739091    -1.075035
 H     4.019610    -0.371705    -1.031354
 C     4.959543    -2.272165    -0.650939
 H     4.682580    -3.214237    -0.140688
 C     5.221531    -2.594405    -2.117378
 H     4.329060    -3.022730    -2.599415
 H     6.046366    -3.314893    -2.231259
 H     5.496552    -1.683388    -2.675333
 C     6.214608    -1.725233     0.020049
 H     7.062506    -2.418119    -0.095651
 H     6.069409    -1.559369     1.098130
 H     6.509247    -0.761927    -0.430797
 H     1.122617     2.025069     0.256842
 H     2.061163     1.125947    -0.927711
 C     3.265266     2.213486     0.521065
 H     3.221239     2.467795     1.593357
 H     4.172464     1.596028     0.392735
 C     3.450079     3.510699    -0.273774
 H     2.530058     4.112248    -0.144653
 C     4.617516     4.313811     0.288196
 H     4.476776     4.536450     1.357465
 H     4.740766     5.270845    -0.241968
 H     5.562200     3.753718     0.186452
 C     3.637414     3.254276    -1.765278
 H     3.792191     4.196651    -2.312952
 H     2.768073     2.752386    -2.215860
 H     4.520335     2.617134    -1.943715
