  64
scf done:    -3263.158171
 C    -0.323392    -2.997795    -1.518052
 H    -1.108074    -3.684997    -1.183338
 H    -0.436329    -2.681830    -2.560207
 C     0.967514    -3.097237    -0.952223
 H     1.152775    -3.854050    -0.182056
 H     1.851978    -2.847633    -1.545902
 H     0.609793    -0.792636    -1.490299
Co     0.043739    -1.442344    -0.282295
 C    -1.783405     0.334724    -2.504286
 C    -3.323457    -0.739170    -0.387327
 C    -1.650011     1.455762     0.140395
 C     1.642775     0.054150     2.336446
 C     3.325259    -0.792788     0.260853
 C     1.677745     1.511002    -0.138718
 P     1.600122    -0.203680     0.516382
 P    -1.613209    -0.152466    -0.746639
 C    -0.505070    -2.098259     1.244853
 O    -0.818228    -2.485779     2.283182
 H    -0.875315     0.863838    -2.825168
 H    -1.866800    -0.591533    -3.089393
 H    -2.671346     0.958168    -2.682662
 C    -3.558286    -2.096771    -0.156745
 C    -4.405283     0.151886    -0.365468
 C    -5.920757    -1.669186     0.104551
 C    -5.695339    -0.310451    -0.121993
 C    -4.850866    -2.560600     0.087048
 H    -2.714746    -2.788354    -0.169475
 H    -5.019435    -3.624742     0.268853
 H    -6.933232    -2.030819     0.300247
 H    -6.530315     0.394327    -0.102288
 H    -4.233912     1.220180    -0.524606
 C    -1.730397     1.412489     1.540071
 C    -1.569579     2.698662    -0.492257
 C    -1.655610     3.823497     1.646367
 C    -1.569662     3.875181     0.258194
 C    -1.738062     2.585536     2.287288
 H    -1.798762     0.444322     2.045457
 H    -1.810877     2.535200     3.376619
 H    -1.657179     4.746012     2.231857
 H    -1.495131     4.838706    -0.251367
 H    -1.491206     2.762160    -1.578700
 H     1.686027    -0.936662     2.809861
 H     2.516550     0.639379     2.655882
 H     0.715328     0.548009     2.660382
 C     3.626942    -2.099418     0.667706
 C     4.343215    -0.001201    -0.280506
 C     5.927773    -1.807222    -0.003432
 C     5.635406    -0.509640    -0.416344
 C     4.919326    -2.600483     0.544712
 H     2.833986    -2.731170     1.075042
 H     5.138478    -3.620720     0.869014
 H     6.940664    -2.202901    -0.110267
 H     6.419638     0.118588    -0.846085
 H     4.130046     1.021445    -0.598078
 C     1.691967     1.701310    -1.528176
 C     1.727142     2.635987     0.689915
 C     1.809709     4.095526    -1.235589
 C     1.786604     3.918394     0.144739
 C     1.764945     2.979879    -2.072639
 H     1.646231     0.828439    -2.184841
 H     1.784826     3.106506    -3.158009
 H     1.859592     5.100834    -1.660845
 H     1.809975     4.784799     0.809886
 H     1.705071     2.526278     1.774542
