  74
scf done:    -5480.387506
 C    -2.456887    -2.087634     1.757784
 H    -2.694740    -1.205354     2.357483
 H    -3.318006    -2.524601     1.243763
 C    -1.359532    -2.897331     2.106305
 H    -0.757800    -2.642811     2.984130
 H    -1.378840    -3.966562     1.871517
 H    -0.434986    -0.750810     1.536413
Co    -0.890547    -1.730814     0.516432
 C     2.239540    -2.258109     1.775463
 O     1.888756    -2.313928    -0.922979
 O     1.781771    -0.086017     0.220342
 C    -0.496642     0.386748    -2.082168
 O    -2.970619    -0.014655    -1.328725
 O    -1.490591     1.369680     0.302541
 P    -1.471395    -0.039625    -0.593027
 P     1.169427    -1.638240     0.429594
 C    -1.258227    -2.957897    -0.690862
 O    -1.478078    -3.761972    -1.476375
 H     1.963489    -1.688719     2.677724
 C     2.077639    -3.754974     1.997903
 H     2.274585    -4.323948     1.077365
 H     1.058604    -4.004506     2.320780
 H     3.283206    -1.994182     1.539353
 H     2.777208    -4.107333     2.770052
 C     3.187190    -2.088902    -1.287704
 C     4.183354    -3.004345    -0.945272
 H     3.919356    -3.896869    -0.376204
 C     3.513232    -0.956337    -2.038043
 H     2.724456    -0.252433    -2.303544
 C     5.501810    -2.785114    -1.336406
 H     6.285669    -3.497059    -1.073563
 C     4.828217    -0.732201    -2.431080
 H     5.091035     0.150392    -3.016337
 C     5.820280    -1.645539    -2.072789
Cl     7.459928    -1.364198    -2.554488
 C     2.320482     0.694199     1.202693
 C     3.706533     0.848499     1.264628
 H     4.332292     0.318996     0.542835
 C     1.492804     1.371350     2.101408
 H     0.409963     1.254377     2.021290
 C     4.269848     1.676690     2.230533
 H     5.351411     1.808478     2.288914
 C     2.055910     2.196999     3.070783
 H     1.421979     2.734585     3.777680
 C     3.441243     2.344637     3.132433
Cl     4.140948     3.373868     4.337153
 H    -0.207721    -0.604503    -2.471198
 C    -1.113064     1.234674    -3.183818
 H    -1.291760     2.269541    -2.864391
 H    -2.072340     0.813199    -3.513434
 H     0.434498     0.822873    -1.683837
 H    -0.435476     1.264052    -4.050654
 C    -4.074818    -0.554969    -0.731391
 C    -4.674669    -1.666298    -1.321202
 H    -4.232832    -2.089145    -2.225118
 C    -4.607576    -0.003339     0.434305
 H    -4.114244     0.849688     0.902874
 C    -5.810044    -2.230196    -0.747753
 H    -6.286106    -3.103047    -1.197036
 C    -5.741896    -0.565047     1.011558
 H    -6.163641    -0.148561     1.927501
 C    -6.338255    -1.677224     0.418792
Cl    -7.748267    -2.380032     1.138720
 C    -1.542530     2.626817    -0.240278
 C    -2.750859     3.163318    -0.687773
 H    -3.661544     2.566126    -0.635164
 C    -0.369441     3.378754    -0.313152
 H     0.564336     2.947532     0.051845
 C    -2.782439     4.446940    -1.223890
 H    -3.719343     4.875451    -1.582993
 C    -0.398269     4.662989    -0.847992
 H     0.513110     5.259406    -0.911741
 C    -1.605247     5.190405    -1.306050
Cl    -1.644230     6.786564    -1.976603
