 100
scf done:    -3583.210518
 C     1.360149    -1.462450    -3.375765
 H     0.822959    -1.027109    -4.224722
 H     2.437936    -1.284521    -3.401479
 C     0.861219    -2.625978    -2.753265
 H    -0.071836    -3.083761    -3.095358
 H     1.557962    -3.337717    -2.299804
 H     1.819195    -1.277249    -0.938709
Co     0.514176    -1.007922    -1.588183
 C     0.545527     2.446109    -1.667986
 O     1.260187     1.085354     0.580055
 O     2.815631     1.286451    -1.448094
 C    -1.220786    -1.098544     1.366292
 O    -1.341577    -3.170192    -0.400466
 O     0.667854    -2.826172     1.159381
 P    -0.283452    -2.009403     0.091254
 P     1.263715     0.870471    -1.065568
 C    -1.031170    -0.597598    -2.296153
 O    -2.043665    -0.358162    -2.785818
 H     1.199699     3.260876    -1.313907
 H     0.655796     2.420262    -2.764995
 C    -0.902784     2.683094    -1.267240
 H    -1.556329     1.952683    -1.768462
 H    -1.020953     2.498003    -0.187008
 C    -1.394504     4.088459    -1.582749
 H    -1.293262     4.279740    -2.666346
 H    -0.737593     4.827772    -1.087545
 C    -2.835189     4.328375    -1.154187
 H    -3.485372     3.577871    -1.637099
 H    -2.921765     4.140436    -0.068899
 C    -3.338907     5.726767    -1.470919
 H    -4.380457     5.867381    -1.144570
 H    -3.299280     5.929812    -2.553193
 H    -2.726893     6.494715    -0.970708
 C     1.892286     2.171691     1.241084
 H     2.427406     1.734404     2.101263
 H     2.651824     2.626192     0.584465
 C     0.909567     3.217600     1.733471
 H     1.483611     3.972952     2.298933
 H     0.473347     3.754789     0.874975
 C    -0.205019     2.651742     2.599687
 H     0.233977     2.179084     3.496239
 H    -0.696292     1.836757     2.045305
 C    -1.236951     3.689096     3.008136
 H    -0.780652     4.512024     3.581355
 H    -1.722254     4.134383     2.124113
 H    -2.029510     3.248530     3.632208
 C     3.855422     0.397732    -1.809092
 H     3.599056    -0.632447    -1.505626
 H     3.947915     0.406043    -2.908085
 C     5.159159     0.837498    -1.175623
 H     5.980540     0.293798    -1.674741
 H     5.313462     1.906288    -1.405636
 C     5.231487     0.607571     0.326505
 H     5.156745    -0.474266     0.526716
 H     4.346064     1.057347     0.801676
 C     6.492915     1.161685     0.966282
 H     7.398058     0.711382     0.527419
 H     6.568140     2.251906     0.824013
 H     6.515650     0.964969     2.049135
 H    -1.559793    -1.822622     2.125943
 H    -0.477629    -0.445488     1.851187
 C    -2.370757    -0.281940     0.799745
 H    -1.954802     0.527989     0.180926
 H    -2.972156    -0.898103     0.110194
 C    -3.280631     0.311823     1.864223
 H    -2.674947     0.884076     2.589224
 H    -3.747204    -0.503728     2.447326
 C    -4.364887     1.211509     1.288988
 H    -3.889410     2.005195     0.686615
 H    -4.977679     0.628740     0.578383
 C    -5.257147     1.838120     2.347404
 H    -6.031610     2.479400     1.899941
 H    -4.671456     2.460932     3.043099
 H    -5.768489     1.068194     2.947575
 C    -1.975363    -4.093863     0.469626
 H    -1.923053    -5.073802    -0.034059
 H    -1.409510    -4.183942     1.412359
 C    -3.424374    -3.725957     0.732280
 H    -3.873483    -4.529300     1.343053
 H    -3.468507    -2.816198     1.354555
 C    -4.240716    -3.510839    -0.534469
 H    -4.280433    -4.454746    -1.106373
 H    -3.707327    -2.794650    -1.180846
 C    -5.648240    -3.010574    -0.255996
 H    -6.210978    -3.714409     0.378676
 H    -5.627049    -2.041199     0.269221
 H    -6.220113    -2.869819    -1.185533
 C     2.010170    -3.198987     0.908684
 H     2.141009    -4.207895     1.334738
 H     2.194381    -3.260815    -0.176052
 C     2.965602    -2.211778     1.546309
 H     3.997958    -2.517015     1.298282
 H     2.803277    -1.229116     1.072468
 C     2.805814    -2.076828     3.052931
 H     3.010214    -3.050180     3.533819
 H     1.750154    -1.847163     3.272194
 C     3.704570    -1.006338     3.649933
 H     4.768684    -1.215583     3.452350
 H     3.482511    -0.018128     3.215872
 H     3.577633    -0.927503     4.740313
