  90
scf done:    -3203.865275
 C     0.324771     1.567708    -2.402218
 H     1.034686     2.383453    -2.224665
 H     0.548899     0.977448    -3.297070
 C    -1.018104     1.708544    -1.980796
 H    -1.333926     2.632444    -1.484249
 H    -1.814293     1.232921    -2.564012
 H    -0.422287    -0.659659    -1.722998
Co    -0.029545     0.427904    -0.782286
 C     1.873971    -2.284476    -1.657945
 C     3.274421     0.195096    -1.477647
 C     2.457167    -1.156526     0.922785
 C    -1.194622    -2.118768     1.070822
 C    -2.497148     0.385967     1.579804
 C    -3.050088    -1.014060    -0.902480
 P    -1.656558    -0.539411     0.220328
 P     1.818081    -0.676679    -0.748138
 C     0.390881     1.518232     0.509481
 O     0.652153     2.177225     1.421026
 H     1.136545    -2.937772    -1.162213
 C     1.561773    -2.168886    -3.140805
 H     2.322359    -1.575853    -3.671368
 H     0.587507    -1.680299    -3.294216
 H     2.864002    -2.744551    -1.504050
 H     1.528578    -3.161699    -3.615071
 H     2.990786     0.459582    -2.509156
 H     4.114302    -0.516047    -1.545547
 C     3.666695     1.452676    -0.716965
 H     2.781339     2.103371    -0.636394
 H     3.948333     1.198800     0.321504
 C     4.810968     2.251825    -1.345239
 H     4.520333     2.480452    -2.388161
 C     4.995158     3.573710    -0.608958
 H     4.067099     4.166011    -0.608323
 H     5.787359     4.184839    -1.068699
 H     5.277413     3.398997     0.442891
 C     6.116335     1.464430    -1.381666
 H     6.928669     2.060518    -1.825679
 H     6.028161     0.538979    -1.970467
 H     6.430209     1.184082    -0.361399
 H     1.699202    -1.834585     1.349479
 H     2.393596    -0.234155     1.522110
 C     3.840805    -1.780668     1.024194
 H     3.874171    -2.707514     0.427114
 H     4.595080    -1.107154     0.579742
 C     4.281228    -2.112218     2.454209
 H     3.500021    -2.755524     2.902241
 C     5.585479    -2.901247     2.436859
 H     5.490054    -3.827179     1.848272
 H     5.901881    -3.179512     3.454084
 H     6.397245    -2.304091     1.988509
 C     4.416160    -0.863682     3.319322
 H     4.743337    -1.120922     4.338543
 H     3.468986    -0.311232     3.407938
 H     5.165768    -0.174913     2.893744
 H    -0.469500    -1.805541     1.840619
 C    -2.269225    -3.005009     1.679984
 H    -2.932014    -3.428845     0.911513
 H    -2.896434    -2.461699     2.402884
 H    -0.610368    -2.680552     0.323737
 H    -1.812617    -3.851363     2.217023
 H    -1.748742     0.499238     2.383183
 H    -3.316184    -0.226450     1.988130
 C    -2.996020     1.757772     1.145855
 H    -2.136420     2.348320     0.794656
 H    -3.661177     1.660990     0.268195
 C    -3.731436     2.544514     2.233169
 H    -3.070922     2.577699     3.120248
 C    -3.970729     3.978240     1.774072
 H    -3.024771     4.480918     1.520048
 H    -4.472361     4.573534     2.552855
 H    -4.610368     3.999123     0.875643
 C    -5.042337     1.882485     2.644800
 H    -5.549996     2.460071     3.432864
 H    -4.892638     0.862691     3.030508
 H    -5.731745     1.816932     1.785690
 H    -2.709355    -1.932649    -1.412468
 H    -3.051247    -0.236492    -1.679519
 C    -4.447769    -1.194946    -0.327193
 H    -4.431773    -1.915994     0.504249
 H    -4.797297    -0.243618     0.110245
 C    -5.490745    -1.661966    -1.348115
 H    -5.126153    -2.611203    -1.785315
 C    -6.816875    -1.945543    -0.651592
 H    -6.701308    -2.694221     0.147864
 H    -7.572078    -2.321509    -1.359142
 H    -7.220354    -1.027881    -0.191411
 C    -5.678666    -0.663627    -2.485290
 H    -6.447131    -1.010251    -3.193405
 H    -4.752877    -0.503072    -3.057168
 H    -6.004226     0.315299    -2.094183
