  76
scf done:    -3817.046096
 C    -0.400226    -2.201237    -2.487117
 H    -1.048803    -3.078063    -2.377143
 H    -0.665273    -1.566659    -3.339562
 C     0.950606    -2.305489    -2.079205
 H     1.311567    -3.245142    -1.648704
 H     1.725785    -1.754177    -2.621032
 H     0.295107    -0.085948    -1.713141
Co    -0.077316    -1.155116    -0.791578
 C    -2.157362     1.215699    -2.146749
 C    -3.432732    -0.681658    -0.446040
 C    -1.787746     1.239778     0.819405
 C     1.458964     0.271693     2.060246
 C     3.132801    -1.224032     0.301523
 C     2.125567     1.323550    -0.556281
 P     1.586244    -0.231968     0.259115
 P    -1.793399     0.138455    -0.652710
 C    -0.606881    -2.409474     0.317427
 O    -0.993506    -3.240431     1.014395
 H    -2.363440     0.417368    -2.883688
 C    -3.406194     2.080899    -2.025309
 H    -3.580431     2.614591    -2.973137
 H    -4.304229     1.486595    -1.810886
 H    -3.306649     2.841027    -1.235247
 C    -0.967562     2.010577    -2.675261
 H    -0.062103     1.392630    -2.748540
 H    -1.202371     2.394318    -3.680379
 H    -0.720901     2.880463    -2.048844
 C    -4.511442    -0.090672     0.227998
 H    -4.394450     0.889913     0.694089
 C    -3.618898    -1.942548    -1.023995
 H    -2.780898    -2.414958    -1.538149
 C    -5.739328    -0.737984     0.324172
 H    -6.583169    -0.289580     0.851729
 C    -4.843935    -2.599272    -0.945749
 H    -4.995246    -3.583762    -1.391828
 C    -5.889968    -1.986900    -0.268253
 F    -7.062061    -2.609546    -0.178271
 C    -1.422657     2.589820     0.782733
 H    -1.212358     3.076975    -0.168570
 C    -2.033874     0.654905     2.073046
 H    -2.315596    -0.399847     2.130683
 C    -1.301979     3.338255     1.954234
 H    -1.018860     4.392289     1.930822
 C    -1.925368     1.387368     3.248612
 H    -2.116475     0.935673     4.223641
 C    -1.552646     2.726278     3.174322
 F    -1.439103     3.433204     4.295654
 H     0.674710     1.047709     2.056662
 C     0.956476    -0.892651     2.902492
 H     0.817964    -0.565983     3.945252
 H    -0.003088    -1.283265     2.543373
 H     1.681178    -1.722510     2.909748
 C     2.742965     0.843415     2.649206
 H     3.173334     1.652901     2.042922
 H     2.544094     1.247323     3.655073
 H     3.509057     0.060134     2.751701
 C     4.412245    -0.664299     0.191714
 H     4.525837     0.408329     0.021637
 C     3.022988    -2.603024     0.524440
 H     2.032573    -3.056700     0.597775
 C     5.552936    -1.456158     0.294613
 H     6.554464    -1.031881     0.203179
 C     4.153535    -3.405158     0.646830
 H     4.077529    -4.479634     0.822513
 C     5.407466    -2.818876     0.524252
 F     6.494096    -3.580208     0.625038
 C     2.707653     1.242312    -1.831103
 H     2.919835     0.262511    -2.266065
 C     1.845920     2.590955    -0.036710
 H     1.383474     2.696242     0.944867
 C     3.009673     2.384901    -2.561615
 H     3.464625     2.327513    -3.552075
 C     2.132531     3.748129    -0.761650
 H     1.915134     4.740248    -0.361525
 C     2.712229     3.630305    -2.016250
 F     2.991118     4.728904    -2.713711
