  88
scf done:    -3974.177403
 C    -0.309705     0.087718     3.374782
 H     0.163897    -0.535287     4.141890
 H    -0.152509     1.159290     3.529858
 C    -1.504688    -0.350440     2.755860
 H    -1.944076    -1.311365     3.049727
 H    -2.242466     0.390976     2.434791
 H    -0.239092     0.876116     1.064236
Co     0.047689    -0.511527     1.480717
 C     2.334019     1.820659     2.232361
 C     3.526366    -0.548907     1.156894
 C     2.008395     1.174225    -0.663463
 C    -0.096735    -2.004952    -1.623492
 C    -2.507294    -2.198285    -0.036739
 C    -1.740665     0.315369    -1.404427
 P    -1.054817    -1.037743    -0.322482
 P     1.937330     0.421229     1.047780
 C     0.482683    -2.113785     2.029367
 O     0.705404    -3.140909     2.499146
 H     2.126810     1.326528     3.197805
 C     3.770667     2.335618     2.264288
 H     3.861085     3.098224     3.054811
 H     4.501747     1.548723     2.495262
 H     4.065140     2.810117     1.317865
 C     1.349524     2.975548     2.083821
 H     0.311774     2.622405     2.011438
 H     1.423393     3.647678     2.953109
 H     1.571917     3.574615     1.189580
 H     4.357362     0.101621     0.846647
 H     3.656356    -0.730442     2.235436
 C     3.576853    -1.857945     0.425097
 C     3.534693    -3.065511     1.133470
 H     3.429293    -3.045564     2.219979
 C     3.714806    -1.928173    -0.969222
 H     3.765541    -1.014406    -1.563272
 C     3.616386    -4.296226     0.487889
 H     3.572973    -5.234644     1.043067
 C     3.805148    -3.148170    -1.632826
 H     3.915382    -3.201457    -2.717404
 C     3.750766    -4.322074    -0.893074
 F     3.818373    -5.493162    -1.524900
 H     2.004082     0.308374    -1.344427
 H     1.022799     1.648129    -0.775784
 C     3.083028     2.154827    -1.031976
 C     2.767088     3.514274    -1.165718
 H     1.731710     3.837572    -1.031633
 C     4.413538     1.775446    -1.261208
 H     4.704805     0.726210    -1.199661
 C     3.735060     4.466922    -1.469758
 H     3.485174     5.524635    -1.569787
 C     5.397231     2.712226    -1.566479
 H     6.433090     2.415265    -1.739590
 C     5.047668     4.053423    -1.656725
 F     5.983703     4.955231    -1.943761
 H     0.791775    -1.374090    -1.802913
 C     0.390645    -3.325986    -1.041945
 H     0.978828    -3.873460    -1.793340
 H     1.034204    -3.176477    -0.167406
 H    -0.444131    -3.980364    -0.744589
 C    -0.806122    -2.230187    -2.953938
 H    -1.016761    -1.297864    -3.495339
 H    -0.174057    -2.849693    -3.610024
 H    -1.757412    -2.771927    -2.825863
 H    -2.373538    -3.058971    -0.707769
 H    -2.376381    -2.568316     0.989236
 C    -3.885109    -1.639034    -0.219680
 C    -4.511888    -0.901742     0.794209
 H    -3.990043    -0.736288     1.738061
 C    -4.584347    -1.843124    -1.414397
 H    -4.125312    -2.430973    -2.214009
 C    -5.782360    -0.366459     0.617838
 H    -6.267941     0.222167     1.397849
 C    -5.860166    -1.317326    -1.608307
 H    -6.410053    -1.472620    -2.538347
 C    -6.437855    -0.573186    -0.589567
 F    -7.645391    -0.038846    -0.776292
 H    -0.836486     0.846856    -1.750079
 H    -2.173712    -0.164150    -2.292230
 C    -2.754079     1.300155    -0.879285
 C    -3.934729     1.502752    -1.604725
 H    -4.111946     0.920377    -2.511567
 C    -2.558638     2.072685     0.272291
 H    -1.640531     1.943170     0.847137
 C    -4.904920     2.409574    -1.188802
 H    -5.835093     2.545731    -1.743158
 C    -3.517941     2.982485     0.707408
 H    -3.369305     3.576870     1.610877
 C    -4.687165     3.135576    -0.026348
 F    -5.614212     3.998457     0.391255
