  78
scf done:    -3570.666694
 C     0.411027    -1.891649     2.918758
 H     0.965789    -2.835351     2.880582
 H     0.815052    -1.163020     3.626576
 C    -0.953658    -1.872217     2.569556
 H    -1.453730    -2.789919     2.242321
 H    -1.622132    -1.137317     3.028340
 H    -0.039838     0.242403     1.828248
Co     0.167663    -1.036552     1.103354
 O     2.644785     0.412562     2.360059
 C     3.367946    -0.620117    -0.036175
 C     1.733526     1.734288     0.176646
 O    -0.841714    -0.321049    -1.788160
 C    -2.736317    -1.610283    -0.358526
 C    -2.271363     1.179232     0.010424
 P    -1.372296    -0.402106    -0.205917
 P     1.942186     0.065406     0.893739
 C     0.528448    -2.480301     0.173206
 O     0.762386    -3.416994    -0.449125
 C     3.982440     0.838318     2.463798
 H     4.686477     0.021006     2.235540
 H     4.209505     1.684036     1.791167
 H     4.140024     1.162377     3.502926
 C     3.731293    -1.945025     0.241199
 H     3.147020    -2.522343     0.962607
 C     4.137451     0.102058    -0.953206
 H     3.888486     1.142364    -1.174438
 C     4.827534    -2.527944    -0.382709
 H     5.093767    -3.562086    -0.146588
 C     5.226596    -0.492279    -1.587326
 H     5.811931     0.089257    -2.305327
 C     5.590537    -1.815321    -1.317430
 C     6.744587    -2.464697    -2.022498
 H     7.433402    -1.718508    -2.443332
 H     7.315032    -3.117128    -1.344759
 H     6.389924    -3.094214    -2.855689
 C     1.770566     2.872457     0.986687
 H     2.050639     2.775353     2.037848
 C     1.327293     1.872051    -1.156865
 H     1.249431     0.987677    -1.793110
 C     1.409108     4.117750     0.474987
 H     1.438184     4.995342     1.127458
 C     0.967030     3.117243    -1.658875
 H     0.640083     3.201638    -2.699331
 C     0.988522     4.261545    -0.850468
 C     0.517182     5.584249    -1.377381
 H     0.797718     5.725000    -2.431661
 H    -0.583057     5.648847    -1.321620
 H     0.927610     6.422708    -0.796619
 C    -1.625936     0.165302    -2.847782
 H    -2.596485    -0.356123    -2.920462
 H    -1.814643     1.247630    -2.748039
 H    -1.065066    -0.013482    -3.776953
 C    -2.639220    -2.649124    -1.289862
 H    -1.797101    -2.670846    -1.985909
 C    -3.806672    -1.618556     0.544943
 H    -3.896873    -0.822688     1.288943
 C    -3.599576    -3.657403    -1.328140
 H    -3.508251    -4.457121    -2.068547
 C    -4.759285    -2.630378     0.502669
 H    -5.589346    -2.615677     1.214980
 C    -4.675083    -3.669052    -0.434438
 C    -5.694969    -4.769700    -0.454094
 H    -5.538009    -5.466998     0.385593
 H    -6.717250    -4.373426    -0.357509
 H    -5.640781    -5.353993    -1.383465
 C    -1.659494     2.219375     0.714853
 H    -0.697180     2.039454     1.195668
 C    -3.516128     1.425097    -0.587730
 H    -4.028366     0.627344    -1.130630
 C    -2.257843     3.472184     0.801817
 H    -1.747394     4.269550     1.349138
 C    -4.114356     2.677387    -0.492814
 H    -5.084339     2.846667    -0.968998
 C    -3.494674     3.725896     0.199601
 C    -4.153417     5.068362     0.320694
 H    -4.794408     5.284558    -0.546262
 H    -4.792485     5.111313     1.218637
 H    -3.410798     5.874474     0.411487
