  98
scf done:    -3432.818713
 C    -0.321738    -0.380854    -3.240838
 H    -0.853309    -1.280809    -3.570005
 H    -0.830115     0.551464    -3.507304
 C     1.093743    -0.399006    -3.159195
 H     1.630190    -1.313373    -3.437026
 H     1.660308     0.516092    -3.360932
 H     0.263830     1.036778    -1.440204
Co     0.265031    -0.428604    -1.323444
 O    -1.587399     1.703086     0.037994
 C    -3.065302    -0.212790    -1.322716
 C    -1.910232    -0.698293     1.294347
 O     1.304056    -0.011868     1.624719
 C     3.292975    -1.087547     0.084004
 C     2.621451     1.674060    -0.112658
 P     1.823412     0.023403     0.037653
 P    -1.543665     0.086099    -0.329523
 C     0.348313    -2.166728    -1.133729
 O     0.479963    -3.305829    -1.016342
 C    -2.551138     2.373019     0.840133
 H    -3.367146     1.680633     1.110470
 C    -3.131096     3.508978     0.019545
 H    -3.600452     3.124450    -0.897869
 H    -2.332555     4.206366    -0.275738
 H    -3.887234     4.066054     0.593129
 C    -1.877707     2.848691     2.113724
 H    -1.461886     1.997852     2.671054
 H    -1.050570     3.532653     1.870691
 H    -2.591013     3.378953     2.762843
 H    -2.943618    -1.254143    -1.670642
 H    -2.926146     0.405232    -2.223381
 C    -4.447336    -0.018158    -0.714105
 H    -4.494507    -0.501185     0.276787
 H    -4.640082     1.054339    -0.540656
 C    -5.589206    -0.576875    -1.569872
 H    -5.382680    -1.652353    -1.729831
 C    -6.914968    -0.459530    -0.827158
 H    -6.878091    -0.970532     0.147840
 H    -7.741580    -0.899045    -1.406601
 H    -7.166732     0.597890    -0.639718
 C    -5.667920     0.093641    -2.936717
 H    -6.503047    -0.310877    -3.529174
 H    -4.748029    -0.049647    -3.522618
 H    -5.831958     1.179575    -2.829602
 H    -2.750975    -0.183413     1.789132
 H    -1.000885    -0.502399     1.882560
 C    -2.194223    -2.191244     1.209338
 H    -3.065498    -2.370161     0.555684
 H    -1.346819    -2.706779     0.728955
 C    -2.466031    -2.859424     2.560451
 H    -3.321805    -2.334710     3.026967
 C    -2.863949    -4.316485     2.354798
 H    -3.744768    -4.404985     1.699651
 H    -3.103630    -4.808143     3.310415
 H    -2.042399    -4.881939     1.884461
 C    -1.276237    -2.749862     3.507177
 H    -1.481620    -3.255574     4.463357
 H    -1.023023    -1.703385     3.732916
 H    -0.383008    -3.219935     3.062702
 C     2.119288     0.215913     2.768778
 H     3.050393     0.730996     2.464335
 C     2.471316    -1.108688     3.424239
 H     3.034148    -1.760653     2.743019
 H     1.551227    -1.636658     3.715765
 H     3.079802    -0.947310     4.327066
 C     1.352030     1.121743     3.713790
 H     1.089747     2.069241     3.224363
 H     0.418482     0.631242     4.030822
 H     1.946559     1.343620     4.612557
 H     2.901185    -2.091479     0.322384
 H     3.950893    -0.784874     0.914567
 C     4.058136    -1.125555    -1.231791
 H     3.335949    -1.249562    -2.053389
 H     4.553364    -0.152675    -1.405511
 C     5.108204    -2.235185    -1.323978
 H     4.581546    -3.195390    -1.166185
 C     5.722734    -2.262723    -2.718471
 H     4.950873    -2.382598    -3.494452
 H     6.442018    -3.089424    -2.825929
 H     6.261716    -1.323427    -2.927919
 C     6.186818    -2.109668    -0.253994
 H     6.937931    -2.908857    -0.351271
 H     5.771521    -2.171511     0.763370
 H     6.714900    -1.144835    -0.342747
 H     2.909107     1.733422    -1.176766
 H     3.556650     1.700809     0.471342
 C     1.689975     2.824206     0.243523
 H     0.676567     2.590871    -0.122847
 H     1.600370     2.896240     1.341202
 C     2.116392     4.185586    -0.306158
 H     2.179243     4.087651    -1.406669
 C     1.055049     5.233553     0.007215
 H     0.073006     4.935732    -0.391746
 H     1.313358     6.214080    -0.422193
 H     0.945777     5.367117     1.097008
 C     3.484619     4.620331     0.206256
 H     3.768608     5.605263    -0.196179
 H     4.275770     3.908677    -0.074855
 H     3.481372     4.699380     1.306989
