  62
scf done:    -2961.417952
 C    -0.617163    -2.799482    -1.023888
 H    -1.475399    -3.302622    -0.563659
 H    -0.730854    -2.643893    -2.101730
 C     0.679123    -2.993359    -0.480205
 H     0.806050    -3.642006     0.393689
 H     1.545808    -2.993849    -1.147638
 H     0.609878    -0.760186    -1.357796
Co    -0.006131    -1.145444    -0.060224
 O    -1.210020     1.380754    -1.755838
 C    -3.161447    -0.372459    -1.080955
 C    -1.919095     1.481934     0.759834
 O     1.591667     1.029527     1.841259
 C     3.281205    -0.714069     0.641059
 C     1.981224     1.492362    -0.689092
 P     1.638066     0.099156     0.448823
 P    -1.520562     0.267467    -0.550951
 C    -0.612014    -1.643630     1.499294
 O    -1.022417    -2.034614     2.502074
 C    -0.842928     0.948998    -3.039276
 H    -0.069585     0.161174    -2.992617
 H    -1.709665     0.557767    -3.601627
 H    -0.439426     1.815974    -3.582005
 H    -3.764213     0.470341    -1.459902
 H    -2.964803    -1.043471    -1.934068
 C    -3.899453    -1.135384     0.012037
 H    -4.142560    -0.450464     0.842492
 H    -3.227372    -1.899013     0.436712
 C    -5.173893    -1.796787    -0.488899
 H    -5.876097    -1.054493    -0.900954
 H    -4.955137    -2.523779    -1.287209
 H    -5.691715    -2.334769     0.319561
 H    -2.231715     0.882212     1.633059
 H    -0.946723     1.922432     1.042039
 C    -2.936832     2.564880     0.434843
 H    -3.915365     2.102666     0.219487
 H    -2.627661     3.072398    -0.492520
 C    -3.090295     3.575264     1.561292
 H    -3.421728     3.090278     2.493678
 H    -2.134008     4.078868     1.775214
 H    -3.827853     4.352469     1.309180
 C     1.168670     0.484570     3.061733
 H     0.074212     0.356586     3.096711
 H     1.635864    -0.492262     3.278108
 H     1.460403     1.187094     3.856228
 H     3.940383    -0.027982     1.199202
 H     3.109465    -1.598279     1.276977
 C     3.918828    -1.138427    -0.677181
 H     4.212235    -0.240863    -1.247202
 H     3.167120    -1.657140    -1.294018
 C     5.131572    -2.034984    -0.483113
 H     5.905154    -1.536564     0.122800
 H     4.855695    -2.967283     0.034833
 H     5.587206    -2.310445    -1.446454
 H     2.225447     1.030702    -1.660776
 H     1.011755     1.995115    -0.843689
 C     3.051847     2.484039    -0.260339
 H     4.019068     1.965320    -0.144604
 H     2.796041     2.872958     0.737158
 C     3.205607     3.629158    -1.249685
 H     3.489459     3.262171    -2.249421
 H     2.261720     4.186637    -1.360955
 H     3.978316     4.342771    -0.925034
