  62
scf done:    -2961.430594
 C    -0.855196    -3.157030    -1.141484
 H    -1.122736    -3.889177    -0.371151
 H    -1.649257    -2.984167    -1.874978
 C     0.499439    -3.034280    -1.541896
 H     1.255210    -3.676966    -1.076915
 H     0.733382    -2.764856    -2.577130
 H    -0.503791    -0.834852    -1.707846
Co    -0.062233    -1.455988    -0.432117
 O    -1.501497     1.307574    -0.398699
 C    -3.304705    -0.800598    -0.688687
 C    -2.170397    -0.064798     1.869221
 O     1.782663     0.754635     0.775350
 C     3.239058    -0.820246    -0.933168
 C     1.401802     1.126889    -1.986907
 P     1.567375    -0.107775    -0.629943
 P    -1.720989    -0.266131     0.090314
 C     0.396511    -2.056742     1.146276
 O     0.691905    -2.419902     2.197686
 C    -2.358448     2.409939    -0.129741
 H    -3.265297     2.063226     0.394530
 C    -2.767409     3.020922    -1.456543
 H    -3.278454     2.277520    -2.085619
 H    -1.877148     3.369345    -2.002392
 H    -3.442018     3.877675    -1.307795
 C    -1.630017     3.390829     0.768485
 H    -1.329506     2.906555     1.708528
 H    -0.719900     3.757597     0.271733
 H    -2.268852     4.254574     1.007558
 H    -3.360240    -1.870177    -0.425736
 C    -4.619785    -0.106790    -0.366294
 H    -4.668969     0.910043    -0.780279
 H    -4.801563    -0.037421     0.717433
 H    -3.097582    -0.785290    -1.771014
 H    -5.462704    -0.668804    -0.798319
 H    -2.909401     0.743810     1.992181
 C    -2.677429    -1.347250     2.513845
 H    -1.966123    -2.175380     2.385943
 H    -3.640966    -1.665553     2.087274
 H    -1.239575     0.274012     2.353376
 H    -2.826998    -1.206913     3.595117
 C     2.795372     1.712994     1.050807
 H     3.548850     1.709377     0.242363
 C     3.476842     1.319784     2.348109
 H     3.962747     0.338497     2.255578
 H     2.732476     1.255943     3.156383
 H     4.240540     2.059565     2.632009
 C     2.162752     3.089794     1.129263
 H     1.652643     3.341086     0.188703
 H     1.413297     3.112647     1.934524
 H     2.919820     3.862279     1.332994
 H     3.990909    -0.013875    -0.959004
 C     3.628475    -1.891791     0.072364
 H     2.946750    -2.750791     0.011348
 H     3.579243    -1.511148     1.103059
 H     3.194406    -1.238359    -1.953308
 H     4.652363    -2.252749    -0.108334
 H     0.494463     1.689276    -1.713089
 C     2.556618     2.035068    -2.379397
 H     3.458259     1.466546    -2.653336
 H     2.834318     2.739155    -1.582643
 H     1.100631     0.499970    -2.842711
 H     2.279828     2.639422    -3.257654
