  82
scf done:    -3871.480577
 C    -0.081410    -3.393336    -0.803634
 H     0.741019    -3.717689    -1.449286
 H    -0.039547    -3.808762     0.207316
 C    -1.323083    -3.053288    -1.373645
 H    -1.458941    -3.102311    -2.458749
 H    -2.240085    -3.201362    -0.795160
 H    -1.014120    -1.595097     0.513127
Co    -0.341593    -1.384862    -0.785968
 O     0.628644    -0.274757     2.048563
 O     2.489284    -1.382518     0.957301
 O     1.636075     0.862284     0.057845
 O    -2.255192     0.658051    -2.276394
 O    -3.417950    -0.485239    -0.439903
 O    -1.670854     1.273150     0.160312
 P    -1.879961    -0.015682    -0.856656
 P     1.082980    -0.606705     0.519160
 C     0.412167    -0.966817    -2.326935
 O     0.885462    -0.646372    -3.318569
 C     0.332374    -1.325499     2.943703
 H    -0.074318    -0.869220     3.856087
 H    -0.424504    -2.007573     2.519379
 H     1.240623    -1.895996     3.192472
 C     3.562120    -1.624187     0.138656
 C     3.408995    -2.188088    -1.126320
 H     2.409350    -2.455706    -1.463753
 C     4.830917    -1.296995     0.645539
 C     4.975099    -0.727752     2.021942
 H     4.482342     0.252920     2.101292
 H     4.501438    -1.380996     2.770705
 H     6.034132    -0.603990     2.285129
 C     4.526305    -2.399643    -1.931723
 H     4.398685    -2.831295    -2.926910
 C     5.932964    -1.525493    -0.182553
 H     6.927936    -1.271181     0.192806
 C     5.792392    -2.061052    -1.462745
 H     6.673774    -2.220789    -2.087669
 C     2.629584     1.628945     0.621553
 C     2.521805     2.095315     1.930150
 H     1.648952     1.812367     2.517409
 C     3.710426     1.973739    -0.204098
 C     3.777412     1.488161    -1.618562
 H     4.546910     2.032417    -2.182430
 H     4.022952     0.415194    -1.659918
 H     2.810228     1.609890    -2.127755
 C     3.532849     2.897424     2.455281
 H     3.455892     3.260181     3.482821
 C     4.706986     2.781197     0.352421
 H     5.561562     3.059495    -0.270207
 C     4.631261     3.235781     1.668018
 H     5.427306     3.863893     2.074096
 C    -3.479603     1.254964    -2.678305
 H    -4.332211     0.796502    -2.159909
 H    -3.464822     2.335115    -2.472167
 H    -3.575802     1.089428    -3.760086
 C    -3.736489    -1.213037     0.672043
 C    -3.171730    -0.941017     1.919446
 H    -2.438820    -0.138119     2.015413
 C    -4.686261    -2.233610     0.503537
 C    -5.274841    -2.490802    -0.849190
 H    -5.853022    -1.622139    -1.202504
 H    -4.487090    -2.667155    -1.597942
 H    -5.941624    -3.363295    -0.830430
 C    -3.549906    -1.702371     3.024370
 H    -3.106987    -1.489870     4.000298
 C    -5.046288    -2.975994     1.630454
 H    -5.782549    -3.776366     1.517104
 C    -4.486495    -2.722132     2.882547
 H    -4.785705    -3.320763     3.745562
 C    -2.364956     2.456294     0.063792
 C    -3.623519     2.577023     0.647402
 H    -4.053603     1.720997     1.170087
 C    -1.753635     3.522551    -0.613588
 C    -0.404481     3.342595    -1.237624
 H     0.304282     2.893327    -0.528118
 H    -0.461462     2.651449    -2.094274
 H    -0.001511     4.300586    -1.592290
 C    -4.311824     3.784721     0.549489
 H    -5.300362     3.883900     1.003615
 C    -2.466097     4.722889    -0.691333
 H    -2.011162     5.569856    -1.212164
 C    -3.732988     4.858428    -0.123463
 H    -4.265445     5.808956    -0.202423
