  96
scf done:    -3806.324684
 C     1.454396    -0.198236    -3.164080
 H     2.092699     0.625129    -3.501178
 H     1.992145    -1.136934    -3.009433
 C     0.093524    -0.214509    -3.515943
 H    -0.299365     0.595998    -4.139859
 H    -0.431469    -1.165778    -3.646740
 H     0.367559    -1.185343    -1.287885
Co     0.323557     0.269910    -1.545675
 O     1.590918    -1.243314     0.879182
 C     3.494703    -0.378068    -0.860191
 C     2.267782     1.377339     1.136379
 O    -1.930241     1.146069     0.651880
 C    -3.136740     0.060039    -1.473631
 C    -1.746437    -1.476481     0.539398
 P    -1.548665     0.003288    -0.519012
 P     1.888237     0.054415    -0.096730
 C     0.248896     2.001196    -1.819946
 O     0.207709     3.131808    -2.028717
 C     2.212728    -1.565922     2.104911
 H     3.167193    -2.092418     1.913585
 H     2.439621    -0.652763     2.679917
 C     1.253246    -2.446605     2.875068
 H     1.718451    -2.728428     3.835430
 H     0.373618    -1.833142     3.116475
 C     0.840222    -3.684648     2.088266
 H     1.698986    -4.377353     2.049658
 H     0.638115    -3.386734     1.047132
 C    -0.377852    -4.422952     2.631812
 H    -0.334411    -4.475680     3.735198
 H    -1.682513    -2.341496     3.783740
 H    -0.341074    -5.468662     2.281931
 C     3.870334    -1.725953    -0.869210
 H     3.233694    -2.455904    -0.364589
 C     4.266789     0.570304    -1.563791
 C     3.889096     2.021043    -1.626150
 H     4.072124     2.535817    -0.669446
 H     2.819365     2.147943    -1.845611
 H     4.463173     2.542164    -2.404545
 C     5.026074    -2.144503    -1.523320
 H     5.306118    -3.200537    -1.515481
 C     5.422935     0.127368    -2.214982
 H     6.028923     0.856225    -2.760634
 C     5.811575    -1.210181    -2.192807
 H     6.720140    -1.522632    -2.713025
 C     1.154826     2.176698     1.429312
 H     0.217923     1.955133     0.918113
 C     3.480979     1.603950     1.833210
 C     4.740716     0.801608     1.659508
 H     5.295628     1.101200     0.757428
 H     4.553805    -0.273301     1.556159
 H     5.403277     0.954661     2.522842
 C     1.209599     3.207661     2.360294
 H     0.320619     3.808522     2.564684
 C     3.515657     2.657629     2.758159
 H     4.449098     2.844602     3.296221
 C     2.407764     3.457633     3.020647
 H     2.481872     4.267251     3.750828
 C    -2.261384     2.468761     0.263431
 H    -1.362603     3.107177     0.337602
 H    -2.593039     2.497376    -0.788130
 C    -3.360302     2.998253     1.160230
 H    -3.599653     4.025443     0.833315
 H    -4.272620     2.400398     0.992452
 C    -3.003644     2.992472     2.639619
 H    -2.105052     3.615250     2.797696
 H    -2.713010     1.969419     2.929712
 C    -4.133680     3.483209     3.529069
 H    -4.426581     4.515013     3.275718
 H    -5.030022     2.852023     3.416582
 H    -3.849757     3.469641     4.592302
 C    -3.026354     0.471372    -2.805451
 H    -2.028050     0.676289    -3.189533
 C    -4.422056    -0.187002    -0.930404
 C    -4.675590    -0.606617     0.489364
 H    -4.077326    -0.021234     1.197903
 H    -4.411224    -1.664582     0.645061
 H    -5.740260    -0.486287     0.734149
 C    -4.140891     0.617870    -3.626870
 H    -4.018700     0.939092    -4.663734
 C    -5.528643    -0.035451    -1.774992
 H    -6.524506    -0.226272    -1.365281
 C    -5.402282     0.353822    -3.106561
 H    -6.294034     0.459076    -3.729503
 C    -1.764564    -1.338596     1.877861
 H    -1.649307    -0.345116     2.317623
 C    -1.921354    -2.816888    -0.068088
 C    -2.080250    -2.959373    -1.553344
 H    -1.304690    -2.391205    -2.088904
 H    -3.051516    -2.569955    -1.896045
 H    -2.008726    -4.014254    -1.852085
 C    -2.110957    -2.480872     2.778269
 H    -3.209510    -2.426744     2.923184
 C    -1.936789    -3.901876     0.732893
 H    -2.024616    -4.890509     0.268486
 C    -1.759089    -3.867061     2.224243
 H    -2.485121    -4.575802     2.658009
