 100
scf done:    -4107.170064
 C     0.389860    -0.032487    -3.679532
 H    -0.495529     0.473618    -4.074620
 H     1.348547     0.336630    -4.054513
 C     0.289242    -1.301350    -3.130703
 H    -0.682435    -1.799035    -3.083145
 H     1.163500    -1.955570    -3.071293
 H     0.038472    -1.095646    -0.782864
Co     0.378568     0.105256    -1.593384
 O     2.571442    -2.045134    -0.851461
 O     3.524879     0.293677    -1.033588
 O     2.163442    -0.455755     0.992272
 O    -1.809272    -0.178445     0.626249
 O    -2.602755     1.475791    -1.129465
 O    -2.538681    -0.913788    -1.724433
 P    -1.574739     0.172556    -0.943835
 P     2.112283    -0.505798    -0.673099
 C     0.800844     1.794918    -1.719079
 O     1.135883     2.888251    -1.823137
 C     2.892146    -2.988038     0.168740
 H     3.483894    -3.763917    -0.341407
 H     3.532455    -2.516826     0.929436
 C     1.648639    -3.584285     0.797692
 H     1.977693    -4.342368     1.530703
 H     1.131950    -2.799881     1.375424
 C     0.681292    -4.205873    -0.199624
 H     1.208377    -4.974007    -0.792929
 H     0.368865    -3.430396    -0.918477
 C    -0.541894    -4.815825     0.465443
 H    -0.261876    -5.607415     1.179291
 H    -1.111066    -4.056439     1.025271
 H    -1.223212    -5.265041    -0.273560
 C     4.745711    -0.176562    -0.611748
 C     5.479567    -1.016867    -1.447757
 H     5.058162    -1.298066    -2.414179
 C     5.253527     0.184470     0.634841
 H     4.669204     0.833494     1.288586
 C     6.721436    -1.488107    -1.033883
 H     7.289136    -2.148351    -1.695672
 C     6.498550    -0.295770     1.034367
 H     6.889027    -0.008726     2.014695
 C     7.256157    -1.137225     0.212149
 C     8.611417    -1.624240     0.636907
 H     8.816576    -2.633872     0.251443
 H     8.705389    -1.651370     1.732130
 H     9.407682    -0.962663     0.256147
 C     1.635752     0.583863     1.705764
 C     2.010114     1.905914     1.466041
 H     2.712281     2.136998     0.663325
 C     0.726654     0.292412     2.721502
 H     0.434761    -0.745312     2.886812
 C     1.473822     2.925006     2.250432
 H     1.779251     3.956025     2.053431
 C     0.200102     1.321661     3.493988
 H    -0.509725     1.079828     4.290484
 C     0.557420     2.658961     3.272380
 C    -0.056418     3.766065     4.079437
 H     0.549709     4.682182     4.032846
 H    -0.165974     3.484182     5.137279
 H    -1.062718     4.017899     3.703546
 C    -2.827543     0.278155     1.513318
 H    -2.325907     0.921241     2.255966
 H    -3.559364     0.894248     0.970305
 C    -3.503947    -0.890736     2.196338
 H    -4.215024    -0.477064     2.933320
 H    -4.109307    -1.441672     1.460656
 C    -2.537896    -1.848814     2.876988
 H    -1.989923    -1.317970     3.676176
 H    -1.777584    -2.153006     2.138967
 C    -3.226300    -3.078527     3.444489
 H    -3.981077    -2.806835     4.200297
 H    -3.744606    -3.637417     2.648559
 H    -2.508860    -3.763801     3.921144
 C    -2.226975     2.769890    -0.895871
 C    -1.434068     3.136876     0.191061
 H    -1.048489     2.384108     0.881559
 C    -2.686819     3.742758    -1.784021
 H    -3.301950     3.431166    -2.630237
 C    -1.104291     4.478160     0.371312
 H    -0.472655     4.753148     1.219021
 C    -2.354240     5.076583    -1.581509
 H    -2.720461     5.830010    -2.284570
 C    -1.551734     5.471519    -0.502983
 C    -1.158835     6.908337    -0.317412
 H    -0.825386     7.104722     0.711678
 H    -1.994287     7.588884    -0.540498
 H    -0.328594     7.180751    -0.990299
 C    -3.687818    -1.470950    -1.232903
 C    -4.870937    -0.740056    -1.150282
 H    -4.874304     0.302476    -1.471278
 C    -3.662075    -2.809695    -0.843289
 H    -2.724419    -3.362030    -0.920179
 C    -6.018759    -1.352817    -0.650111
 H    -6.943540    -0.773412    -0.580971
 C    -4.818047    -3.408056    -0.353766
 H    -4.786877    -4.457523    -0.047166
 C    -6.016051    -2.689999    -0.237585
 C    -7.246064    -3.335507     0.331668
 H    -7.416407    -4.331952    -0.103582
 H    -8.142566    -2.726944     0.147794
 H    -7.154054    -3.469716     1.422233
