 110
scf done:    -4486.217307
 C     0.582811    -2.171959     2.078240
 H     1.247084    -2.991608     1.783636
 H     0.989116    -1.538275     2.871326
 C    -0.808460    -2.295973     1.899243
 H    -1.216793    -3.221282     1.483411
 H    -1.502160    -1.755483     2.549343
 H    -0.274943    -0.019561     1.489046
Co    -0.031997    -1.071816     0.491763
 O     2.142430     1.142723     1.426612
 C     3.278659    -1.132763     0.714414
 C     2.503465     0.830273    -1.198891
 O    -2.023305    -0.085424    -1.928767
 C    -3.447754    -0.997764     0.153469
 C    -1.991423     1.565722     0.311553
 P    -1.825546    -0.178760    -0.286145
 P     1.852411    -0.030867     0.315574
 C     0.213122    -2.272823    -0.767027
 O     0.335017    -3.063387    -1.595125
 C     1.204133     2.135536     1.786672
 H     0.251055     1.939175     1.272022
 C     1.741600     3.487860     1.354914
 H     1.884243     3.511976     0.264343
 H     2.714415     3.682729     1.833177
 H     1.040920     4.289687     1.630334
 C     0.970984     2.036153     3.281559
 H     0.549141     1.049557     3.524080
 H     1.924445     2.146927     3.821486
 H     0.273631     2.816716     3.621503
 C     3.734720    -1.978374    -0.313094
 O     3.070449    -1.864776    -1.478278
 C     3.382783    -2.691667    -2.558055
 H     2.681093    -2.428099    -3.358770
 H     4.415652    -2.528908    -2.912508
 H     3.246888    -3.757611    -2.307047
 C     3.862133    -1.278724     1.988641
 O     3.349057    -0.558778     3.003220
 C     3.875521    -0.696362     4.286802
 H     3.294765    -0.024179     4.932221
 H     4.939135    -0.400865     4.334293
 H     3.777844    -1.728762     4.668236
 C     4.925455    -2.174691     2.184876
 H     5.388613    -2.274053     3.165430
 C     4.788277    -2.878979    -0.123590
 H     5.135285    -3.513590    -0.938006
 C     5.381555    -2.955584     1.130370
 H     6.207788    -3.651411     1.295332
 C     3.648585     1.652211    -1.118676
 O     4.322641     1.636618     0.041349
 C     5.427318     2.467246     0.224414
 H     5.779841     2.288926     1.248434
 H     6.245264     2.232570    -0.480077
 H     5.162924     3.534687     0.119351
 C     1.881297     0.699469    -2.456793
 O     0.896540    -0.198344    -2.551531
 C     0.280223    -0.440751    -3.780392
 H    -0.452711    -1.233407    -3.599460
 H     1.011837    -0.771394    -4.539891
 H    -0.253263     0.449018    -4.153146
 C     2.310619     1.453405    -3.560979
 H     1.815359     1.354560    -4.525946
 C     4.070804     2.421909    -2.213919
 H     4.939591     3.073999    -2.134991
 C     3.387987     2.318587    -3.419191
 H     3.718817     2.910571    -4.276466
 C    -3.275090     0.117532    -2.578840
 H    -4.063452     0.242114    -1.819329
 C    -3.582621    -1.121883    -3.399740
 H    -3.537400    -2.015219    -2.762740
 H    -2.844332    -1.241658    -4.208299
 H    -4.582971    -1.055649    -3.854153
 C    -3.234104     1.379000    -3.420635
 H    -3.096816     2.267177    -2.792082
 H    -2.407554     1.338235    -4.146430
 H    -4.176915     1.487065    -3.978781
 C    -4.614903    -0.351464     0.611839
 O    -4.670121     0.984008     0.450101
 C    -5.684674     1.728768     1.055317
 H    -5.432279     2.784180     0.890070
 H    -6.673258     1.518401     0.610160
 H    -5.737626     1.541016     2.141913
 C    -3.512077    -2.403054     0.038447
 O    -2.515097    -2.990689    -0.645405
 C    -2.462155    -4.386547    -0.747840
 H    -1.550083    -4.614892    -1.311206
 H    -3.337407    -4.786353    -1.288774
 H    -2.402328    -4.865454     0.244988
 C    -4.584421    -3.136189     0.564697
 H    -4.595926    -4.223372     0.507403
 C    -5.690799    -1.070580     1.147249
 H    -6.568287    -0.552904     1.532761
 C    -5.649732    -2.459351     1.142721
 H    -6.485637    -3.025576     1.560586
 C    -2.363289     1.802465     1.649831
 O    -2.659200     0.705395     2.372509
 C    -2.908439     0.812719     3.743109
 H    -3.061636    -0.210160     4.109680
 H    -2.054305     1.263856     4.276381
 H    -3.816210     1.405751     3.953968
 C    -1.512724     2.662098    -0.428207
 O    -0.955221     2.403640    -1.626230
 C    -0.391990     3.449824    -2.363753
 H     0.032484     2.998197    -3.267754
 H     0.423902     3.945766    -1.810587
 H    -1.145828     4.203435    -2.653548
 C    -1.574518     3.965168     0.094334
 H    -1.232335     4.813085    -0.496420
 C    -2.409395     3.091612     2.186623
 H    -2.721359     3.257082     3.217071
 C    -2.033583     4.167519     1.387647
 H    -2.071279     5.181259     1.793576
