  92
scf done:    -3878.213987
 C     0.020155    -2.515006    -2.233319
 H    -0.583305    -3.385918    -1.957285
 H    -0.270182    -2.062781    -3.187618
 C     1.359100    -2.419324    -1.797701
 H     1.800122    -3.211809    -1.184947
 H     2.086250    -1.877635    -2.407195
 H     0.573131    -0.198873    -1.765763
Co     0.176446    -1.163429    -0.734548
 C    -1.816093     0.687400    -2.753987
 O    -3.041364    -1.018466    -1.130911
 O    -1.922672     1.072050    -0.018629
 C     0.727560     1.038660     1.861122
 O     2.742701    -0.488700     1.162669
 O     2.029392     1.332601    -0.567035
 P     1.393758     0.127161     0.394026
 P    -1.608749    -0.150784    -1.122840
 C    -0.158599    -2.346157     0.537730
 O    -0.278657    -3.155083     1.341257
 H    -1.356239    -0.063436    -3.421552
 C    -3.240727     0.944432    -3.229451
 H    -3.217745     1.266805    -4.282811
 H    -3.861570     0.041791    -3.157981
 H    -3.725326     1.741801    -2.648630
 C    -0.952001     1.945877    -2.792119
 H     0.066957     1.759149    -2.420133
 H    -0.872740     2.312761    -3.826943
 H    -1.401072     2.749022    -2.188251
 C    -3.239481    -2.021069    -0.219388
 C    -3.319753    -1.733297     1.142299
 H    -3.224723    -0.697523     1.474786
 C    -3.366364    -3.330432    -0.679371
 H    -3.298781    -3.525910    -1.750684
 C    -3.498550    -2.758650     2.076045
 C    -3.493017    -2.448457     3.543612
 H    -3.984700    -1.487885     3.756474
 H    -3.995996    -3.232657     4.126809
 H    -2.455890    -2.373950     3.911734
 C    -3.565209    -4.350957     0.245506
 H    -3.663979    -5.382154    -0.101908
 C    -3.624787    -4.071014     1.609905
 H    -3.764779    -4.884899     2.325675
 C    -2.932246     1.989484     0.050806
 C    -4.277127     1.635155    -0.056556
 H    -4.541990     0.597102    -0.258931
 C    -2.571017     3.314940     0.309254
 H    -1.513292     3.567200     0.406157
 C    -5.279146     2.604877     0.070074
 C    -6.719852     2.209541    -0.078522
 H    -6.957756     1.328795     0.537201
 H    -7.395187     3.025386     0.214198
 H    -6.948493     1.942782    -1.123296
 C    -3.564964     4.277887     0.442404
 H    -3.287052     5.315048     0.644975
 C    -4.909984     3.929920     0.320631
 H    -5.683160     4.694972     0.425962
 H     0.116189     1.830266     1.393692
 C    -0.211468     0.113954     2.631100
 H    -0.667671     0.664377     3.468388
 H    -1.018245    -0.263653     1.992374
 H     0.332902    -0.746189     3.051804
 C     1.760787     1.654928     2.799570
 H     2.388872     2.412496     2.316789
 H     1.236453     2.139598     3.638635
 H     2.420412     0.878411     3.212172
 C     3.487753    -1.502178     0.624241
 C     4.151685    -1.334944    -0.589030
 H     4.038579    -0.393616    -1.131280
 C     3.582681    -2.700448     1.329420
 H     3.043068    -2.806693     2.271880
 C     4.917212    -2.373595    -1.128123
 C     5.575783    -2.206759    -2.466371
 H     6.012003    -1.203191    -2.579670
 H     6.372000    -2.948382    -2.621222
 H     4.840316    -2.334824    -3.278345
 C     4.353511    -3.732312     0.802602
 H     4.434983    -4.676676     1.346145
 C     5.014116    -3.573391    -0.415105
 H     5.610926    -4.394004    -0.821290
 C     2.692432     2.459510    -0.167882
 C     4.019454     2.396269     0.251984
 H     4.515285     1.425195     0.301926
 C     2.023128     3.682578    -0.235482
 H     0.989179     3.702819    -0.585425
 C     4.695477     3.558221     0.640952
 C     6.122827     3.477828     1.099009
 H     6.239029     2.743257     1.910803
 H     6.783944     3.157699     0.277734
 H     6.485121     4.449082     1.463185
 C     2.692528     4.839808     0.148781
 H     2.177366     5.802476     0.105640
 C     4.014771     4.779588     0.588661
 H     4.528940     5.694882     0.892417
