  92
scf done:    -3878.058163
 C    -0.661113    -1.051681    -2.479461
 H    -1.402571    -1.828891    -2.694436
 H    -0.998046    -0.039657    -2.716393
 C     0.714903    -1.353943    -2.515401
 H     1.035442    -2.364847    -2.789309
 H     1.449511    -0.579892    -2.755625
 H     0.290281     0.270995    -0.828132
Co     0.089311    -1.157415    -0.601870
 C    -1.459285    -0.072596     2.240592
 C    -1.980837     1.391825    -0.236620
 C    -3.276721    -1.186969     0.315775
 C     2.359480    -1.479075     2.107531
 C     3.466206    -0.964775    -0.454902
 C     1.947288     1.132460     0.964414
 P     1.904438    -0.646360     0.480608
 P    -1.654542    -0.305455     0.391699
 C    -0.007514    -2.891869    -0.395039
 O    -0.021987    -4.046435    -0.363501
 H    -0.505981     0.478141     2.304466
 C    -2.535021     0.711776     2.976051
 H    -2.219806     0.878814     4.019685
 H    -2.735317     1.687828     2.515270
 H    -3.481549     0.152273     3.000919
 C    -1.256366    -1.446686     2.869165
 H    -0.491495    -2.022091     2.330040
 H    -0.942406    -1.347581     3.920694
 H    -2.190886    -2.029410     2.851720
 C    -1.360054     2.490474     0.355037
 H    -0.742822     2.351328     1.244749
 C    -2.733291     1.605279    -1.411247
 O    -3.315272     0.517534    -1.951326
 C    -4.035629     0.625754    -3.141857
 H    -4.901906     1.303658    -3.038954
 H    -4.399289    -0.382593    -3.376524
 H    -3.401378     0.981240    -3.973274
 C    -1.485375     3.776366    -0.176058
 H    -0.984837     4.612933     0.314755
 C    -2.854574     2.887104    -1.953170
 H    -3.436182     3.047964    -2.861308
 C    -2.232508     3.971184    -1.330316
 H    -2.337511     4.969942    -1.761366
 C    -3.262800    -2.558478     0.066944
 H    -2.304614    -3.049992    -0.095669
 C    -4.531128    -0.563310     0.502714
 O    -4.525113     0.762698     0.731574
 C    -5.726254     1.470512     0.797604
 H    -6.322958     1.350417    -0.123981
 H    -5.455924     2.528278     0.910886
 H    -6.341783     1.162434     1.661575
 C    -4.434093    -3.316320     0.017176
 H    -4.381167    -4.389923    -0.173642
 C    -5.709976    -1.312250     0.438673
 H    -6.676878    -0.828357     0.578770
 C    -5.657408    -2.685775     0.200618
 H    -6.587852    -3.257565     0.158426
 H     1.574511    -1.139393     2.804652
 C     2.251002    -2.994386     2.001951
 H     2.529401    -3.452418     2.964513
 H     1.237586    -3.332236     1.753528
 H     2.937514    -3.393504     1.238828
 C     3.728891    -1.083220     2.650004
 H     3.884451     0.003062     2.674296
 H     3.856170    -1.477857     3.671457
 H     4.526135    -1.516912     2.026986
 C     3.497915    -2.139356    -1.209566
 H     2.597758    -2.754659    -1.240500
 C     4.628212    -0.163340    -0.431100
 O     4.605023     0.936052     0.344458
 C     5.656364     1.853693     0.298089
 H     6.598601     1.423696     0.681979
 H     5.359637     2.693912     0.939334
 H     5.826963     2.227703    -0.726762
 C     4.626223    -2.528772    -1.930248
 H     4.614388    -3.456427    -2.505691
 C     5.752569    -0.531586    -1.178816
 H     6.644077     0.095907    -1.172717
 C     5.749480    -1.710937    -1.921566
 H     6.639208    -1.985392    -2.493738
 C     1.783108     1.563857     2.280839
 H     1.716515     0.832598     3.087096
 C     2.026248     2.115347    -0.045446
 O     2.194159     1.665358    -1.301081
 C     1.861269     2.497711    -2.379110
 H     0.850724     2.923291    -2.255625
 H     1.879472     1.865918    -3.276202
 H     2.590531     3.316873    -2.508236
 C     1.694639     2.919971     2.606879
 H     1.559918     3.221659     3.647555
 C     1.948683     3.472261     0.272771
 H     2.006774     4.222645    -0.515991
 C     1.784342     3.872217     1.598819
 H     1.722014     4.937050     1.836454
