  82
scf done:    -4268.251795
 C    -2.240617    -1.955128    -2.405794
 H    -3.099217    -2.270923    -1.807701
 H    -2.492964    -1.569954    -3.398535
 C    -0.983082    -2.525736    -2.170897
 H    -0.861744    -3.281638    -1.390349
 H    -0.235594    -2.576798    -2.967461
 H    -1.565893    -1.299106    -0.126435
Co    -1.060434    -0.652125    -1.365995
 O     1.029408    -1.137124     1.114931
 O     1.836024    -1.836034    -1.117206
 O     1.659815     0.671482    -0.598228
 O    -2.862857     1.897332    -1.689421
 O    -4.052338     0.096824    -0.486935
 O    -2.451631     1.412819     0.770830
 P    -2.513482     0.655254    -0.724778
 P     0.809634    -0.741480    -0.449353
 C    -0.512039     0.270840    -2.765195
 O    -0.149287     0.900506    -3.648428
 C     0.076763    -0.802005     2.135688
 H    -0.756845    -0.262485     1.658343
 C     0.750580     0.101613     3.144659
 H     1.099632     1.027487     2.666389
 H     1.610445    -0.408352     3.606594
 H     0.044690     0.379867     3.940218
 C    -0.446349    -2.094640     2.723131
 H    -0.946347    -2.694223     1.948698
 H     0.378982    -2.685462     3.149576
 H    -1.172093    -1.888867     3.524345
 C     3.113114    -2.163202    -0.725475
 C     3.346420    -2.881711     0.446081
 H     2.502695    -3.170069     1.071576
 C     4.173280    -1.798207    -1.554462
 H     3.962418    -1.245673    -2.470944
 C     4.652901    -3.196381     0.811913
 H     4.868120    -3.750726     1.727188
 C     5.478754    -2.110577    -1.192433
 H     6.327074    -1.820291    -1.814328
 C     5.703401    -2.799619    -0.005946
 F     6.953777    -3.093003     0.350601
 C     2.984929     0.946955    -0.391949
 C     3.652523     1.630166    -1.408418
 H     3.098817     1.894820    -2.311351
 C     3.655399     0.597724     0.781640
 H     3.125219     0.062307     1.567223
 C     5.001902     1.942405    -1.269944
 H     5.548227     2.470888    -2.053187
 C     5.006840     0.898736     0.917344
 H     5.560112     0.618801     1.815281
 C     5.666192     1.563263    -0.109911
 F     6.961656     1.847104     0.022065
 C    -3.906852     2.858123    -1.426224
 H    -4.277766     2.691120    -0.401659
 C    -5.027272     2.618216    -2.414960
 H    -5.421891     1.599318    -2.301168
 H    -4.660923     2.741303    -3.445528
 H    -5.847269     3.332649    -2.248122
 C    -3.289202     4.235995    -1.523327
 H    -2.483811     4.355955    -0.784638
 H    -2.866900     4.395359    -2.527214
 H    -4.048675     5.009854    -1.337457
 C    -4.395164    -1.018917     0.219886
 C    -5.338126    -1.877943    -0.348184
 H    -5.742690    -1.637334    -1.332855
 C    -3.863085    -1.299562     1.480091
 H    -3.149509    -0.607607     1.926888
 C    -5.745625    -3.019377     0.334305
 H    -6.480830    -3.704517    -0.091239
 C    -4.261615    -2.447412     2.161169
 H    -3.857059    -2.690641     3.145237
 C    -5.195957    -3.295194     1.581319
 F    -5.577632    -4.392175     2.234922
 C    -1.466932     2.246825     1.212423
 C    -1.568368     2.677477     2.538495
 H    -2.417087     2.339023     3.135704
 C    -0.400015     2.676167     0.419998
 H    -0.310607     2.353821    -0.615892
 C    -0.605359     3.523239     3.077116
 H    -0.668730     3.872296     4.109266
 C     0.575667     3.509861     0.964275
 H     1.427788     3.836985     0.366076
 C     0.463884     3.925693     2.283593
 F     1.393894     4.728188     2.800959
