  90
scf done:    -3727.798178
 C     1.345758    -0.379778    -2.457880
 H     1.210501    -1.288053    -3.055103
 H     0.769599     0.484256    -2.801488
 C     2.536337    -0.186545    -1.739295
 H     3.323620    -0.944756    -1.760397
 H     2.885813     0.829093    -1.540026
 H     0.775201     0.746066    -0.314675
Co     1.009963    -0.702534    -0.478508
 O    -1.400848     0.981535    -1.479376
 C    -2.091280    -1.710807    -1.334234
 C    -1.881306     0.034071     1.072973
 O     0.866042    -0.620464     2.656953
 C     3.293958    -1.570483     1.906775
 C     2.653882     1.268612     1.853069
 P     1.933780    -0.408233     1.380716
 P    -1.056731    -0.353233    -0.550856
 C     1.027168    -2.443214    -0.490797
 O     0.954578    -3.595238    -0.465210
 C    -2.627043     1.247898    -2.111802
 H    -2.745342     0.636503    -3.023813
 H    -3.493096     1.088527    -1.452095
 H    -2.614117     2.306173    -2.410676
 H    -2.067906    -1.499511    -2.414651
 H    -1.473992    -2.608992    -1.191803
 C    -3.481437    -1.990999    -0.851731
 C    -3.672604    -2.806787     0.274027
 H    -2.804710    -3.246150     0.773892
 C    -4.611318    -1.480443    -1.495507
 H    -4.482462    -0.865491    -2.389414
 C    -4.953890    -3.071847     0.745822
 H    -5.089230    -3.710579     1.622012
 C    -5.908335    -1.732577    -1.034780
 C    -7.089110    -1.139111    -1.746637
 H    -7.057821    -0.038326    -1.708496
 H    -7.100752    -1.426476    -2.809680
 H    -8.037891    -1.464302    -1.297575
 C    -6.066938    -2.533116     0.100399
 H    -7.071728    -2.745820     0.475402
 H    -2.210777    -0.929285     1.490017
 H    -1.048239     0.368305     1.706728
 C    -2.989063     1.041783     1.064958
 C    -2.692122     2.402754     0.920282
 H    -1.651606     2.720950     0.830076
 C    -4.330323     0.659303     1.179880
 H    -4.572654    -0.399247     1.300471
 C    -3.715057     3.344260     0.859511
 H    -3.471952     4.402520     0.733814
 C    -5.370107     1.593417     1.131993
 C    -6.798495     1.159503     1.296239
 H    -6.908023     0.079043     1.128892
 H    -7.161150     1.377030     2.314710
 H    -7.464620     1.688199     0.597516
 C    -5.045970     2.943990     0.955861
 H    -5.844748     3.689463     0.905292
 C     1.236027    -0.627053     4.010010
 H     1.787360    -1.543163     4.283437
 H     1.853840     0.245944     4.288479
 H     0.312883    -0.592102     4.607054
 H     3.718431    -1.232435     2.865534
 H     2.788414    -2.533408     2.081102
 C     4.362079    -1.717134     0.866421
 C     4.341783    -2.785473    -0.036662
 H     3.569352    -3.552461     0.047637
 C     5.371546    -0.757620     0.740467
 H     5.421944     0.061927     1.462818
 C     5.294518    -2.866301    -1.048462
 H     5.270818    -3.705755    -1.747510
 C     6.322286    -0.809408    -0.282803
 C     7.342091     0.281526    -0.434293
 H     6.952191     1.088978    -1.077257
 H     7.601569     0.731656     0.535222
 H     8.267205    -0.088113    -0.899622
 C     6.270762    -1.881583    -1.179956
 H     7.007405    -1.947422    -1.985221
 H     1.973948     1.632710     2.639717
 H     3.638525     1.122874     2.319108
 C     2.726915     2.278551     0.752631
 C     3.932914     2.595694     0.118287
 H     4.863049     2.134881     0.457185
 C     1.554994     2.887450     0.297220
 H     0.612472     2.665752     0.804686
 C     3.947100     3.477839    -0.958333
 H     4.893090     3.719227    -1.449335
 C     1.542213     3.747522    -0.804616
 C     0.237480     4.292488    -1.306409
 H    -0.428693     3.461291    -1.588704
 H    -0.280162     4.877010    -0.528779
 H     0.376841     4.941764    -2.181905
 C     2.759338     4.036775    -1.428783
 H     2.776179     4.706513    -2.292775
