  90
scf done:    -3727.811428
 C    -0.992535    -2.263102    -2.157917
 H    -1.840727    -2.879913    -1.843349
 H    -1.219068    -1.596359    -2.994615
 C     0.325281    -2.707210    -1.944422
 H     0.490973    -3.687598    -1.484411
 H     1.130703    -2.387929    -2.612390
 H     0.293079    -0.296528    -1.666622
Co    -0.159686    -1.243568    -0.619852
 O    -1.521843     1.616624    -1.113479
 C    -3.310569    -0.460687    -1.062034
 C    -2.234579     0.671153     1.338488
 O     1.936887    -0.339494     1.745465
 C     3.232188    -1.124086    -0.482783
 C     1.945666     1.378589    -0.221034
 P     1.641277    -0.397864     0.095537
 P    -1.742657     0.162264    -0.356342
 C    -0.624985    -2.335370     0.664488
 O    -0.956374    -3.053560     1.501008
 C    -2.066040     2.870924    -0.690277
 H    -2.099961     2.883675     0.412431
 C    -3.471853     3.086883    -1.217510
 H    -4.158829     2.300140    -0.877522
 H    -3.480514     3.097922    -2.318362
 H    -3.858341     4.054081    -0.861546
 C    -1.098408     3.938563    -1.151066
 H    -0.106478     3.773111    -0.711738
 H    -0.999634     3.917084    -2.247514
 H    -1.456373     4.935289    -0.852543
 C    -3.720583    -0.063245    -2.335588
 H    -3.159995     0.710161    -2.863625
 C    -4.005062    -1.486481    -0.407085
 H    -3.665368    -1.827972     0.575934
 C    -4.831087    -0.666041    -2.925455
 H    -5.151717    -0.354046    -3.922671
 C    -5.121461    -2.094986    -0.983975
 C    -5.875592    -3.171816    -0.258819
 H    -6.088819    -4.025689    -0.919744
 H    -5.311445    -3.543643     0.607943
 H    -6.845099    -2.797538     0.109401
 C    -5.527670    -1.666944    -2.256149
 H    -6.395500    -2.135199    -2.729179
 C    -3.558304     0.910661     1.724170
 H    -4.377193     0.718392     1.028085
 C    -1.201163     0.926038     2.248248
 H    -0.168170     0.717077     1.960243
 C    -3.830485     1.402715     2.998939
 H    -4.864793     1.586720     3.300124
 C    -1.458551     1.444097     3.521060
 C    -0.338982     1.732983     4.478103
 H    -0.297131     0.976509     5.278699
 H     0.632811     1.728262     3.966190
 H    -0.471166     2.712315     4.962576
 C    -2.791163     1.674758     3.884467
 H    -3.016105     2.074967     4.877399
 C     2.123481    -1.549245     2.480217
 H     1.835800    -2.406092     1.842867
 C     1.213447    -1.525347     3.691408
 H     0.161420    -1.422574     3.393409
 H     1.477078    -0.682226     4.347546
 H     1.318230    -2.457070     4.266942
 C     3.588646    -1.681559     2.854257
 H     4.225014    -1.709079     1.959291
 H     3.896984    -0.824100     3.472463
 H     3.758753    -2.603558     3.430753
 C     3.305475    -2.509384    -0.653032
 H     2.401289    -3.109455    -0.541825
 C     4.392944    -0.355271    -0.630654
 H     4.344554     0.727414    -0.490340
 C     4.526242    -3.111310    -0.951230
 H     4.582727    -4.195810    -1.073159
 C     5.621360    -0.943011    -0.944876
 C     6.851616    -0.103116    -1.132735
 H     6.723137     0.898932    -0.699873
 H     7.732950    -0.568843    -0.666587
 H     7.080717     0.025944    -2.203624
 C     5.672266    -2.335059    -1.097162
 H     6.626077    -2.814775    -1.335365
 C     2.306703     2.258187     0.803294
 H     2.351491     1.893221     1.829804
 C     1.913888     1.839102    -1.541275
 H     1.613927     1.153256    -2.338682
 C     2.635694     3.578182     0.495299
 H     2.917155     4.267113     1.295730
 C     2.264831     3.150909    -1.865687
 C     2.204541     3.632371    -3.285434
 H     2.359194     2.809040    -3.997158
 H     1.217361     4.073147    -3.504159
 H     2.959853     4.406997    -3.482978
 C     2.628440     4.016673    -0.825673
 H     2.902231     5.049871    -1.057516
