 104
scf done:    -3511.373936
 C    -1.353543    -2.441087    -2.806746
 H    -1.879249    -3.329684    -2.439708
 H    -1.970092    -1.802778    -3.447472
 C     0.047211    -2.499048    -3.022384
 H     0.588850    -3.428725    -2.814629
 H     0.492029    -1.903256    -3.825851
 H    -0.482909    -0.256638    -2.321375
Co    -0.376037    -1.405865    -1.388620
 O    -1.334622     1.460537    -0.608885
 C    -3.447073    -0.086959    -1.385163
 C    -2.275296    -0.349182     1.243292
 O     1.874115    -0.133587     0.635054
 C     2.960969    -1.447807    -1.472739
 C     1.728917     1.218128    -1.630611
 P     1.488385    -0.470293    -0.960070
 P    -1.823465    -0.129148    -0.531075
 C    -0.300506    -2.742221    -0.268713
 O    -0.253718    -3.655875     0.433806
 C    -1.660833     2.526323     0.253721
 H    -1.757040     3.424348    -0.381291
 H    -2.642835     2.380722     0.736666
 C    -0.583113     2.745206     1.297223
 H    -0.521729     1.857869     1.947641
 H     0.389361     2.804112     0.781576
 C    -0.805217     3.994022     2.136178
 H    -1.787147     3.932431     2.638984
 H    -0.865648     4.873312     1.470250
 C     0.284703     4.215336     3.172720
 H     0.334789     3.375926     3.883884
 H     1.274671     4.298652     2.695668
 H     0.114740     5.135056     3.752347
 H    -3.812359    -1.128851    -1.362296
 H    -3.189428     0.112160    -2.436883
 C    -4.506568     0.879018    -0.878990
 H    -4.655274     0.738369     0.205820
 H    -4.151509     1.916412    -1.009008
 C    -5.869394     0.741131    -1.565871
 H    -6.203051    -0.304734    -1.425992
 C    -6.892838     1.652684    -0.898646
 H    -6.981157     1.440795     0.178596
 H    -7.891054     1.534301    -1.347787
 H    -6.603491     2.711489    -1.007205
 C    -5.793511     1.012376    -3.064079
 H    -6.785675     0.923433    -3.532830
 H    -5.121582     0.310630    -3.579864
 H    -5.424189     2.033785    -3.257629
 H    -2.835464     0.516685     1.631296
 H    -1.310252    -0.368375     1.772497
 C    -3.058216    -1.631677     1.493933
 H    -4.078099    -1.515413     1.089369
 H    -2.605790    -2.467848     0.933788
 C    -3.160452    -2.038128     2.967669
 H    -3.598575    -1.186257     3.522031
 C    -4.100606    -3.229113     3.115009
 H    -5.099483    -3.008092     2.707208
 H    -4.223420    -3.517012     4.170487
 H    -3.705670    -4.105183     2.574325
 C    -1.796538    -2.348981     3.576672
 H    -1.897806    -2.682170     4.620965
 H    -1.131181    -1.472190     3.579620
 H    -1.291000    -3.149548     3.012113
 C     1.761048    -1.143775     1.611136
 H     0.696222    -1.377429     1.792185
 H     2.237595    -2.080848     1.268735
 C     2.418099    -0.676469     2.891734
 H     2.356991    -1.499623     3.625078
 H     3.492540    -0.508863     2.699493
 C     1.799723     0.586470     3.471920
 H     0.724795     0.407556     3.658172
 H     1.844269     1.381240     2.710736
 C     2.472875     1.051550     4.751925
 H     2.412646     0.284795     5.541189
 H     3.540562     1.265951     4.583636
 H     2.010059     1.969905     5.144381
 H     2.866549    -1.581336    -2.563354
 H     2.776437    -2.450060    -1.051788
 C     4.335748    -0.926365    -1.078449
 H     4.616698    -0.101432    -1.753195
 H     4.288865    -0.486911    -0.066533
 C     5.445393    -1.982754    -1.102245
 H     5.405889    -2.492613    -2.083435
 C     6.811402    -1.318843    -0.971389
 H     6.987053    -0.594086    -1.781684
 H     7.625495    -2.059768    -0.998988
 H     6.889548    -0.774046    -0.015474
 C     5.252618    -3.034616    -0.014735
 H     6.046115    -3.796856    -0.051828
 H     4.290578    -3.561246    -0.106337
 H     5.284240    -2.568318     0.984773
 H     0.720598     1.656546    -1.566217
 H     1.930376     1.071554    -2.705255
 C     2.741187     2.137097    -0.959211
 H     2.646842     2.023235     0.131734
 H     3.773363     1.836042    -1.204122
 C     2.558183     3.613356    -1.321038
 H     1.509867     3.880568    -1.085631
 C     3.464557     4.486938    -0.461896
 H     3.270473     4.330987     0.611324
 H     3.320476     5.556769    -0.679729
 H     4.526271     4.250402    -0.644241
 C     2.782575     3.879491    -2.804948
 H     2.644981     4.945217    -3.045577
 H     2.086375     3.305850    -3.435068
 H     3.808922     3.601845    -3.099855
