  80
scf done:    -4117.841129
 C    -0.905318     1.618805    -2.387087
 H    -0.156843     2.415004    -2.412533
 H    -0.982281     1.042155    -3.315404
 C    -2.030676     1.750178    -1.556063
 H    -2.144522     2.641118    -0.932475
 H    -2.973675     1.270931    -1.832096
 H    -0.146904     1.615193    -0.033131
Co    -0.707647     0.439605    -0.734847
 C    -0.630866     1.121869     2.650876
 O    -2.957032     0.989085     1.479557
 O    -1.728258    -1.173565     1.971701
 C     1.874525    -0.801630    -2.596673
 O     2.226016     1.521443    -1.408960
 O     2.198557    -0.545469     0.155183
 P     1.331040     0.142013    -1.104447
 P    -1.458520     0.310052     1.226390
 C    -1.406992    -1.005679    -1.456155
 O    -1.892062    -1.916937    -1.955989
 H    -0.372976     2.122395     2.260830
 C    -1.519175     1.258113     3.880210
 H    -0.946076     1.722064     4.698536
 H    -2.404270     1.874579     3.679850
 H    -1.860873     0.270026     4.223383
 C     0.653094     0.360633     2.966571
 H     1.249532     0.153635     2.067387
 H     1.273331     0.939025     3.668733
 H     0.418518    -0.604216     3.441240
 C    -4.044553     0.810962     0.680203
 C    -4.902430     1.900556     0.516871
 H    -4.662778     2.836832     1.023734
 C    -4.326708    -0.398573     0.042645
 H    -3.672399    -1.259242     0.175397
 C    -6.030255     1.790253    -0.288955
 H    -6.711606     2.630811    -0.431847
 C    -5.448000    -0.508928    -0.777069
 H    -5.676995    -1.442637    -1.293529
 C    -6.286777     0.585942    -0.935427
 F    -7.361738     0.480745    -1.717535
 C    -1.486024    -2.396895     1.427873
 C    -2.535567    -3.317497     1.372363
 H    -3.513963    -3.026431     1.759052
 C    -0.216109    -2.755310     0.969351
 H     0.600789    -2.034862     1.021291
 C    -2.326613    -4.586541     0.840963
 H    -3.132300    -5.320582     0.785708
 C    -0.005878    -4.024020     0.435036
 H     0.973906    -4.328803     0.062492
 C    -1.062972    -4.922554     0.370254
 F    -0.858321    -6.134522    -0.145622
 H     1.119358    -0.460882    -3.328395
 C     3.257917    -0.490795    -3.155845
 H     3.371165    -0.988568    -4.132058
 H     3.408183     0.586892    -3.298183
 H     4.055697    -0.865144    -2.498999
 C     1.673435    -2.297029    -2.365469
 H     0.685872    -2.537344    -1.949143
 H     1.768993    -2.835888    -3.320314
 H     2.439986    -2.694436    -1.683595
 C     2.091438     2.698089    -0.730907
 C     2.170877     2.758355     0.662570
 H     2.320560     1.844503     1.237351
 C     1.918708     3.868070    -1.471972
 H     1.873220     3.802331    -2.560451
 C     2.056967     3.983810     1.313861
 H     2.112425     4.053646     2.401708
 C     1.810076     5.095278    -0.825137
 H     1.672534     6.022532    -1.383976
 C     1.873737     5.138088     0.563015
 F     1.763617     6.310949     1.184742
 C     3.524216    -0.877753     0.245581
 C     4.548285     0.041857     0.006055
 H     4.307583     1.052632    -0.319898
 C     3.833311    -2.172216     0.669364
 H     3.020304    -2.870585     0.875696
 C     5.876611    -0.345287     0.165176
 H     6.693338     0.354102    -0.021826
 C     5.159451    -2.559600     0.834278
 H     5.421063    -3.566453     1.164162
 C     6.168856    -1.640264     0.574487
 F     7.440158    -2.006373     0.726860
