  86
scf done:    -3275.674272
 C     0.236017    -0.626474    -2.857452
 H    -0.516431    -1.369476    -3.144582
 H     0.176010     0.302717    -3.434110
 C     1.491090    -1.058025    -2.361782
 H     1.697776    -2.130515    -2.275778
 H     2.384434    -0.456482    -2.562827
 H     0.942404     0.997685    -1.193242
Co     0.353673    -0.319914    -0.874403
 O    -1.186281     2.554188    -0.640317
 C    -2.804192     0.634930    -1.617326
 C    -2.034649     0.865084     1.165654
 O     1.246182     1.195483     1.719052
 C     2.075281    -1.410677     1.833713
 C     3.440236     0.507210     0.230898
 P     1.735338    -0.015592     0.680391
 P    -1.347031     0.903392    -0.526273
 C    -0.323324    -1.818089    -0.288057
 O    -0.743329    -2.792451     0.163267
 C    -0.593986     3.144678    -1.763426
 H     0.383773     2.684043    -1.992220
 H    -1.234994     3.066186    -2.660590
 H    -0.441711     4.210115    -1.538530
 H    -3.546146     1.422220    -1.402407
 H    -2.448366     0.796521    -2.648708
 C    -3.416464    -0.752432    -1.496625
 H    -2.637643    -1.510739    -1.681701
 H    -3.762708    -0.922705    -0.461638
 C    -4.577329    -0.981368    -2.454451
 H    -4.229747    -0.817283    -3.490798
 H    -5.357299    -0.218527    -2.276650
 C    -5.191167    -2.369711    -2.340917
 H    -4.405171    -3.126039    -2.513144
 H    -5.533536    -2.529311    -1.303010
 C    -6.345668    -2.600791    -3.302292
 H    -6.767954    -3.611547    -3.195969
 H    -6.022822    -2.483975    -4.349449
 H    -7.160942    -1.879829    -3.128765
 H    -2.234596    -0.197956     1.386802
 H    -1.177001     1.149469     1.798024
 C    -3.247229     1.736422     1.449840
 H    -3.033625     2.764564     1.114195
 H    -4.110381     1.390651     0.854112
 C    -3.633546     1.746146     2.922516
 H    -2.773016     2.098064     3.520390
 H    -3.825940     0.710843     3.259458
 C    -4.848660     2.610644     3.228034
 H    -4.653165     3.641022     2.881789
 H    -5.705603     2.253859     2.629243
 C    -5.225431     2.627003     4.700644
 H    -6.106427     3.259170     4.889404
 H    -4.399790     3.014019     5.319549
 H    -5.459431     1.613372     5.064389
 C     2.031150     1.691986     2.770090
 H     2.359716     0.901041     3.466703
 H     2.924649     2.227812     2.404362
 H     1.412571     2.406070     3.332919
 H     2.712619    -1.084508     2.672577
 H     1.092946    -1.678586     2.258545
 C     2.691369    -2.617107     1.132480
 H     2.198945    -2.766157     0.156296
 H     3.751499    -2.410656     0.903805
 C     2.588411    -3.900357     1.943886
 H     1.521609    -4.112146     2.138147
 H     3.054289    -3.751588     2.935396
 C     3.223694    -5.101530     1.258314
 H     2.757889    -5.234432     0.265904
 H     4.289102    -4.885962     1.061459
 C     3.100594    -6.388230     2.058147
 H     3.566617    -7.237999     1.536649
 H     2.044420    -6.646321     2.236997
 H     3.586680    -6.295225     3.042872
 H     4.057191     0.548285     1.146004
 H     3.850388    -0.311095    -0.384331
 C     3.506194     1.823517    -0.527742
 H     2.918725     1.726662    -1.455882
 H     3.000677     2.613497     0.055160
 C     4.925742     2.258856    -0.859858
 H     5.425712     1.461483    -1.439599
 H     5.510327     2.359652     0.073304
 C     4.989530     3.565495    -1.638365
 H     4.404557     3.458084    -2.568935
 H     4.481169     4.355815    -1.057824
 C     6.406326     4.004134    -1.971016
 H     6.418323     4.949998    -2.533499
 H     6.925430     3.247798    -2.581585
 H     7.003728     4.153365    -1.057032
