  78
scf done:    -3570.658561
 C     0.331469     2.909081     0.382090
 H    -0.200188     3.666957    -0.204275
 H     0.104810     2.947544     1.452829
 C     1.613860     2.487196    -0.045218
 H     2.032003     2.920738    -0.961047
 H     2.364641     2.188568     0.693348
 H     0.503475     0.680542     1.020594
Co     0.246472     1.046964    -0.372915
 O    -1.087079    -1.232179     1.248843
 C    -2.712647     0.971036     1.372779
 C    -2.545685    -0.702843    -1.027688
 O     0.538473    -1.845729    -1.503740
 C     2.780817    -0.482744    -2.116407
 C     2.247464    -1.562418     0.596878
 P     1.455876    -0.628313    -0.802343
 P    -1.498966     0.072383     0.295503
 C    -0.196459     1.475695    -2.018994
 O    -0.485626     1.751061    -3.097099
 C    -1.880031    -1.816756     2.254677
 H    -1.844179    -1.222372     3.184476
 H    -2.929882    -1.955995     1.954452
 H    -1.457238    -2.810105     2.463163
 H    -2.087390     1.538890     2.082103
 H    -3.299333     0.246957     1.955777
 C    -3.651318     1.880039     0.629537
 C    -5.032501     1.787159     0.842458
 H    -5.414439     1.059627     1.564284
 C    -3.183268     2.826504    -0.291228
 H    -2.108751     2.907100    -0.460698
 C    -5.922606     2.608379     0.152668
 H    -6.996067     2.519994     0.337386
 C    -4.071821     3.643663    -0.986286
 H    -3.684264     4.369997    -1.704789
 C    -5.444855     3.537787    -0.769572
 H    -6.140520     4.179525    -1.315314
 H    -1.796852    -1.053793    -1.752047
 H    -3.102390     0.127571    -1.490454
 C    -3.437277    -1.824297    -0.606578
 C    -4.773496    -1.609989    -0.246961
 H    -5.193335    -0.604665    -0.330590
 C    -2.921835    -3.125220    -0.520149
 H    -1.879526    -3.296843    -0.798046
 C    -5.565099    -2.661633     0.212105
 H    -6.606213    -2.475574     0.487937
 C    -3.711719    -4.176517    -0.063692
 H    -3.291855    -5.183642     0.000098
 C    -5.035695    -3.947737     0.312571
 H    -5.656153    -4.771915     0.672390
 C     0.985181    -3.160483    -1.690419
 H     1.979371    -3.211709    -2.171755
 H     1.035238    -3.718392    -0.739691
 H     0.265897    -3.666770    -2.351174
 H     2.425003     0.323633    -2.774184
 H     2.751188    -1.412881    -2.703205
 C     4.180509    -0.221963    -1.656468
 C     5.098164    -1.274916    -1.545596
 H     4.789804    -2.287582    -1.821948
 C     4.606052     1.067471    -1.314738
 H     3.905493     1.900003    -1.394403
 C     6.399378    -1.050466    -1.098925
 H     7.098983    -1.886296    -1.022733
 C     5.904106     1.295070    -0.865920
 H     6.212336     2.308725    -0.599274
 C     6.806307     0.237390    -0.752919
 H     7.824871     0.416721    -0.401115
 H     3.032403    -2.227035     0.205194
 H     1.409523    -2.179837     0.957012
 C     2.765650    -0.718226     1.724037
 C     1.898584    -0.308603     2.746855
 H     0.858889    -0.640842     2.720587
 C     4.101127    -0.307040     1.778401
 H     4.797958    -0.629101     1.003568
 C     2.349069     0.511142     3.778512
 H     1.656381     0.822460     4.564419
 C     4.553124     0.513010     2.810555
 H     5.599852     0.826349     2.827426
 C     3.677884     0.932808     3.810312
 H     4.031311     1.579677     4.616895
