  88
scf done:    -3577.421008
 C     0.257531     2.140691     0.470932
 H     1.059132     2.658962    -0.065214
 H    -0.676687     2.707293     0.536305
 C     0.585128     1.211303     1.488311
 H     1.636433     1.049842     1.754274
 H    -0.080685     1.105811     2.353023
 H    -0.019162    -1.241069    -0.138114
Co    -0.015403     0.252573    -0.193120
 C    -1.987118    -1.404353     2.106677
 C    -2.821999     1.263984     1.209598
 C    -3.122655    -1.019068    -0.506765
 C     2.147949    -1.381481    -2.200661
 C     3.067029     1.121277    -1.013928
 C     2.923378    -1.257952     0.608290
 P     1.991153    -0.319786    -0.665870
 P    -1.929133    -0.232065     0.645980
 C    -0.516421     0.763602    -1.777071
 O    -0.829188     1.154181    -2.818015
 H    -1.272986    -0.953596     2.819495
 C    -3.354735    -1.542227     2.766441
 H    -3.266951    -2.149225     3.682156
 H    -3.801578    -0.577816     3.042650
 H    -4.056954    -2.061331     2.096803
 C    -1.464852    -2.779491     1.703577
 H    -0.484254    -2.727073     1.211932
 H    -1.373957    -3.422073     2.593715
 H    -2.162857    -3.270088     1.006862
 C    -2.750545     1.728871     2.526482
 H    -2.268045     1.132067     3.303186
 C    -3.421365     2.078344     0.237974
 H    -3.446224     1.739455    -0.801974
 C    -3.291108     2.970952     2.859238
 H    -3.229488     3.328758     3.889875
 C    -3.972448     3.320247     0.557064
 C    -4.634544     4.162402    -0.494466
 H    -5.732714     4.102764    -0.414256
 H    -4.358730     5.222607    -0.391494
 H    -4.357315     3.832871    -1.505510
 C    -3.899402     3.757132     1.887290
 H    -4.316707     4.731006     2.158222
 C    -4.510725    -0.939151    -0.325973
 H    -4.924828    -0.346142     0.492018
 C    -2.620478    -1.760737    -1.578264
 H    -1.537967    -1.797110    -1.720483
 C    -5.362190    -1.602538    -1.204399
 H    -6.444057    -1.537668    -1.064044
 C    -3.463944    -2.434817    -2.468413
 C    -2.886759    -3.194526    -3.627291
 H    -2.558063    -2.503629    -4.421150
 H    -2.005125    -3.778973    -3.323849
 H    -3.621401    -3.883212    -4.068040
 C    -4.843728    -2.347674    -2.263289
 H    -5.523323    -2.864373    -2.946881
 H     1.529351    -0.828986    -2.929806
 C     3.556601    -1.530602    -2.760333
 H     3.511718    -2.007172    -3.752952
 H     4.071072    -0.565714    -2.873358
 H     4.171424    -2.178981    -2.118705
 C     1.507272    -2.745430    -1.970881
 H     0.470228    -2.655966    -1.620578
 H     1.509826    -3.325815    -2.907202
 H     2.068451    -3.320592    -1.217112
 C     2.893817     1.815470    -2.221368
 H     2.195333     1.445709    -2.976082
 C     3.922329     1.653615    -0.046368
 H     4.051910     1.131544     0.905247
 C     3.595285     2.992058    -2.454343
 H     3.464246     3.523097    -3.400295
 C     4.623578     2.847807    -0.261858
 C     5.509765     3.406819     0.813159
 H     6.145415     2.625314     1.256432
 H     6.162857     4.201791     0.426503
 H     4.908705     3.836851     1.631188
 C     4.456242     3.504503    -1.482920
 H     4.999988     4.433722    -1.673945
 C     4.300095    -1.514463     0.520041
 H     4.887771    -1.102264    -0.301914
 C     2.211834    -1.752870     1.701380
 H     1.149882    -1.501765     1.763882
 C     4.925506    -2.274890     1.503284
 H     5.998149    -2.472922     1.435809
 C     2.825325    -2.522703     2.696626
 C     2.017080    -3.049134     3.846923
 H     1.438095    -2.244310     4.325859
 H     1.292246    -3.805948     3.505614
 H     2.653812    -3.514255     4.612485
 C     4.193503    -2.780203     2.578740
 H     4.697741    -3.375162     3.345516
