  82
scf done:    -5709.364638
 C     0.591867    -3.845731    -0.531466
 H     1.123749    -4.303779    -1.370428
 H     1.199813    -3.706929     0.367109
 C    -0.803543    -3.971324    -0.418795
 H    -1.364834    -4.544825    -1.163026
 H    -1.273152    -3.930261     0.568824
 H    -0.206309    -1.751112     0.334505
Co    -0.311580    -2.114898    -1.086333
 O     1.406119     0.546947    -1.873561
 O     1.833727    -0.312837     0.401040
 O     2.769461    -1.586496    -1.552706
 O    -3.287645    -1.095429    -1.681809
 O    -2.865733    -1.403795     0.724848
 O    -1.775822     0.568561    -0.464322
 P    -2.028155    -1.076249    -0.677412
 P     1.354706    -0.871407    -1.072633
 C    -0.526114    -2.472889    -2.800238
 O    -0.688992    -2.702979    -3.910028
 C     0.560266     0.836695    -2.991774
 H    -0.399647     0.314464    -2.832049
 C     1.202641     0.329084    -4.266994
 H     1.398096    -0.751320    -4.209943
 H     2.158893     0.842933    -4.451387
 H     0.543007     0.508967    -5.128748
 C     0.324389     2.330506    -2.985523
 H    -0.140900     2.643770    -2.041067
 H     1.276773     2.870864    -3.095090
 H    -0.335839     2.618123    -3.817326
 C     2.074353     0.975997     0.794038
 C     1.055806     1.929560     0.783822
 H     0.071847     1.657994     0.398452
 C     3.342942     1.301570     1.269928
 H     4.125917     0.541484     1.265345
 C     1.309825     3.216641     1.247256
 H     0.522875     3.972538     1.242180
 C     3.597901     2.587404     1.737278
 H     4.587884     2.854940     2.109834
 C     2.580577     3.540633     1.721480
Cl     2.897560     5.145054     2.297367
 C     4.003859    -1.087734    -1.226417
 C     4.775257    -1.785822    -0.297695
 H     4.371109    -2.698855     0.142647
 C     4.489070     0.086304    -1.802837
 H     3.868407     0.628609    -2.515150
 C     6.031095    -1.308940     0.064725
 H     6.642566    -1.844251     0.792780
 C     5.742566     0.569471    -1.439300
 H     6.128924     1.492464    -1.874034
 C     6.506693    -0.127194    -0.504484
Cl     8.060897     0.482426    -0.040540
 C    -4.694749    -1.161291    -1.367055
 H    -4.864315    -0.621399    -0.422148
 C    -5.092450    -2.613870    -1.204108
 H    -4.519518    -3.082850    -0.392656
 H    -4.901213    -3.168494    -2.135377
 H    -6.163234    -2.693523    -0.964202
 C    -5.427000    -0.465168    -2.491794
 H    -5.117064     0.585873    -2.565590
 H    -5.218809    -0.963644    -3.450548
 H    -6.511552    -0.493929    -2.311063
 C    -2.291920    -1.625974     1.942197
 C    -2.814219    -2.659592     2.721343
 H    -3.638107    -3.255398     2.324512
 C    -1.236824    -0.848495     2.428661
 H    -0.824378    -0.036101     1.830617
 C    -2.286829    -2.920280     3.980906
 H    -2.689329    -3.726214     4.596387
 C    -0.701119    -1.114842     3.685980
 H     0.128581    -0.516512     4.065266
 C    -1.226244    -2.148641     4.457457
Cl    -0.560918    -2.479441     6.021683
 C    -2.788298     1.483701    -0.339606
 C    -3.392289     1.714914     0.897083
 H    -3.075559     1.143440     1.770596
 C    -3.177856     2.216948    -1.460328
 H    -2.692080     2.019151    -2.416708
 C    -4.393514     2.675278     1.009260
 H    -4.873598     2.866223     1.970211
 C    -4.175279     3.180887    -1.350883
 H    -4.487693     3.761792    -2.220033
 C    -4.782763     3.402518    -0.115323
Cl    -6.028974     4.596029     0.024461
