  86
scf done:    -3275.677350
 C    -0.441566    -3.110936    -0.756038
 H    -1.354636    -3.586294    -0.379232
 H    -0.399526    -3.054404    -1.848631
 C     0.763612    -3.229008    -0.016406
 H     0.766537    -3.792535     0.923253
 H     1.719479    -3.270371    -0.547122
 H     0.797180    -1.080426    -1.106548
Co     0.014641    -1.364373     0.127783
 O    -0.962687     1.017974    -1.895683
 C    -2.974439    -0.722862    -1.378321
 C    -2.021278     1.261955     0.488116
 O     1.420843     0.911864     2.075892
 C     3.216619    -0.850740     1.065255
 C     2.008123     1.282362    -0.436451
 P     1.584481    -0.066071     0.726899
 P    -1.428020    -0.020604    -0.674422
 C    -0.803014    -1.726073     1.625948
 O    -1.354736    -2.024600     2.592263
 C    -0.406350     0.514686    -3.080901
 H     0.352370    -0.260909    -2.871964
 H    -1.178330     0.081427    -3.741885
 H     0.072884     1.352047    -3.608841
 H    -2.659644    -1.461590    -2.134688
 H    -3.509560     0.083847    -1.904550
 C    -3.843989    -1.399042    -0.327316
 H    -3.214082    -2.070503     0.279324
 H    -4.242977    -0.641551     0.372012
 C    -5.015335    -2.207546    -0.890044
 H    -4.590729    -2.963261    -1.577813
 C    -5.732477    -2.946709     0.233445
 H    -5.041822    -3.597443     0.791873
 H    -6.549634    -3.574139    -0.154834
 H    -6.172321    -2.234907     0.952014
 C    -5.987749    -1.342121    -1.683269
 H    -6.828830    -1.939732    -2.067500
 H    -5.505010    -0.859324    -2.546214
 H    -6.409663    -0.545738    -1.046544
 H    -1.105269     1.745229     0.871375
 H    -2.435584     0.699332     1.341626
 C    -3.001693     2.291010    -0.049942
 H    -2.587771     2.716430    -0.978111
 H    -3.948610     1.795774    -0.332928
 C    -3.319522     3.426941     0.925909
 H    -2.359694     3.908953     1.192287
 C    -4.198166     4.473623     0.250974
 H    -3.726376     4.865233    -0.663639
 H    -4.397508     5.325152     0.919966
 H    -5.171676     4.041435    -0.035688
 C    -3.963286     2.922560     2.212702
 H    -4.200255     3.756091     2.891837
 H    -3.308655     2.228637     2.761186
 H    -4.906554     2.392531     1.995843
 C     0.883547     0.412971     3.271004
 H    -0.214312     0.325192     3.221507
 H     1.294591    -0.574529     3.544940
 H     1.138169     1.123924     4.070842
 H     3.010609    -1.713911     1.719717
 H     3.822782    -0.132418     1.639810
 C     3.927425    -1.312202    -0.201665
 H     3.190336    -1.770190    -0.882155
 H     4.332635    -0.435466    -0.738374
 C     5.062173    -2.311113     0.033259
 H     4.624758    -3.184084     0.553867
 C     5.626339    -2.794260    -1.297396
 H     4.841906    -3.241770    -1.927547
 H     6.413193    -3.550274    -1.150637
 H     6.070719    -1.957363    -1.862058
 C     6.161547    -1.736572     0.919064
 H     6.970990    -2.466934     1.072788
 H     5.783873    -1.447717     1.911379
 H     6.606654    -0.839290     0.456072
 H     1.055684     1.778398    -0.686527
 H     2.321312     0.772240    -1.361008
 C     3.043508     2.288575     0.037355
 H     2.733717     2.676229     1.020261
 H     4.015007     1.786228     0.198992
 C     3.256153     3.462055    -0.922773
 H     2.275523     3.956323    -1.059353
 C     4.212318     4.479015    -0.310611
 H     3.850542     4.832017     0.667603
 H     4.338950     5.357801    -0.961947
 H     5.209603     4.034077    -0.155169
 C     3.746664     3.010973    -2.294283
 H     3.916012     3.872073    -2.959232
 H     3.026437     2.346141    -2.794683
 H     4.702013     2.465348    -2.207715
