  62
scf done:    -2961.398787
 C     0.095894    -1.433379    -2.079458
 H     0.992725    -2.051277    -2.197875
 H    -0.823799    -1.965760    -2.341602
 C     0.166919    -0.032039    -2.267120
 H     1.112340     0.427288    -2.575145
 H    -0.699745     0.519961    -2.642257
 H     0.001775     0.752837     0.532302
Co     0.008931    -0.480768    -0.299179
 O    -2.117553     1.657227    -1.032647
 C    -3.383771    -0.803897    -0.880053
 C    -2.622888     0.753581     1.499366
 O     2.399178     0.386401     1.671005
 C     3.325141    -1.130550    -0.430362
 C     2.567466     1.750850    -0.583547
 P     2.013008     0.109473     0.078392
 P    -1.989809     0.237585    -0.171134
 C    -0.042439    -1.934316     0.646168
 O    -0.045112    -2.931811     1.230063
 C    -3.269957     2.429678    -1.224748
 H    -3.958247     1.971156    -1.955430
 H    -3.823980     2.615838    -0.287736
 H    -2.947837     3.402035    -1.625972
 H    -3.266831    -0.607011    -1.962652
 C    -3.140190    -2.293550    -0.647976
 H    -3.882245    -2.887375    -1.205262
 H    -2.138001    -2.601093    -0.968633
 H    -3.238109    -2.560529     0.415145
 C    -4.806505    -0.437713    -0.462712
 H    -5.054089     0.621184    -0.609487
 H    -5.528902    -1.027194    -1.050490
 H    -4.985007    -0.680103     0.596442
 H    -3.669148     1.066049     1.342367
 C    -2.616283    -0.413122     2.480699
 H    -2.997555    -0.085383     3.460973
 H    -3.243877    -1.251188     2.145266
 H    -1.598248    -0.803351     2.627847
 C    -1.848547     1.949996     2.039077
 H    -1.816783     2.779434     1.318090
 H    -2.317211     2.315139     2.967009
 H    -0.807455     1.677735     2.267897
 C     1.771834    -0.301150     2.720461
 H     0.677760    -0.173249     2.686496
 H     1.989373    -1.383175     2.704367
 H     2.155526     0.120518     3.660748
 H     2.761830    -2.077933    -0.370214
 C     3.753040    -0.946609    -1.884145
 H     4.365678    -1.803563    -2.207099
 H     2.894965    -0.881023    -2.569123
 H     4.364010    -0.040487    -2.017087
 C     4.516361    -1.239112     0.514112
 H     4.203092    -1.425880     1.549960
 H     5.161658    -2.075797     0.199525
 H     5.130442    -0.327790     0.517763
 H     2.638598     1.591781    -1.672803
 C     1.496823     2.806522    -0.328276
 H     1.801910     3.766161    -0.775482
 H     0.525417     2.508040    -0.746827
 H     1.363264     2.965972     0.753637
 C     3.927910     2.195608    -0.057386
 H     4.740138     1.524485    -0.368673
 H     4.165968     3.200921    -0.440239
 H     3.924516     2.238180     1.041250
