  66
scf done:    -3810.294998
 C     0.360175    -1.909466     2.881976
 H     0.885665    -2.869074     2.830317
 H     0.791700    -1.198973     3.591974
 C    -1.005697    -1.846657     2.545999
 H    -1.534475    -2.747002     2.215902
 H    -1.647409    -1.096817     3.018607
 H    -0.036665     0.248135     1.812301
Co     0.125935    -1.030136     1.074609
 O     2.618280     0.382488     2.337654
 C     3.344077    -0.708907    -0.034108
 C     1.776320     1.688249     0.121848
 O    -0.901832    -0.248300    -1.797266
 C    -2.803036    -1.523259    -0.367126
 C    -2.272850     1.248531     0.048404
 P    -1.411044    -0.346590    -0.209971
 P     1.925243     0.025362     0.870823
 C     0.440032    -2.473284     0.126569
 O     0.644594    -3.406612    -0.510288
 C     3.970981     0.754965     2.460178
 H     4.644322    -0.095861     2.265271
 H     4.247067     1.575472     1.774862
 H     4.120498     1.094760     3.495166
 C     4.153746    -0.010083    -0.937232
 H     3.943152     1.037665    -1.162078
 C     3.650733    -2.047671     0.248414
 H     3.030236    -2.603309     0.956084
 C     5.233401    -0.632685    -1.558759
 H     5.868299    -0.102654    -2.271093
 C     4.733757    -2.678883    -0.352675
 H     4.981572    -3.720469    -0.141103
 C     5.508712    -1.960666    -1.256949
 F     6.539741    -2.559394    -1.845802
 C     1.863050     2.839874     0.911060
 H     2.122624     2.748893     1.967819
 C     1.388431     1.811694    -1.219310
 H     1.263797     0.916330    -1.832243
 C     1.586498     4.096145     0.374244
 H     1.647854     5.003988     0.977356
 C     1.111392     3.059493    -1.767371
 H     0.802971     3.172512    -2.808338
 C     1.212763     4.187981    -0.960123
 F     0.937685     5.382368    -1.477741
 C    -1.690858     0.277115    -2.836233
 H    -2.675130    -0.218539    -2.902421
 H    -1.849864     1.361761    -2.714299
 H    -1.149820     0.101048    -3.777294
 C    -3.857116    -1.529616     0.555635
 H    -3.918503    -0.750331     1.319477
 C    -2.733517    -2.545246    -1.322249
 H    -1.899842    -2.566559    -2.028075
 C    -4.833818    -2.519820     0.515645
 H    -5.662079    -2.536952     1.226294
 C    -3.705721    -3.540300    -1.374782
 H    -3.666416    -4.340920    -2.115572
 C    -4.745820    -3.512718    -0.453911
 F    -5.679196    -4.460395    -0.498329
 C    -3.530979     1.523610    -0.509642
 H    -4.071237     0.744844    -1.052453
 C    -1.618445     2.263524     0.755048
 H    -0.647686     2.052594     1.205602
 C    -4.115590     2.778362    -0.373020
 H    -5.095388     3.004214    -0.797543
 C    -2.184689     3.526185     0.893552
 H    -1.676004     4.323773     1.437554
 C    -3.429261     3.766689     0.325000
 F    -3.982765     4.967870     0.455137
