  86
scf done:    -5713.116797
 C    -0.578407    -0.177179    -3.677315
 H    -1.108677    -1.040513    -4.092706
 H    -1.105092     0.770561    -3.824497
 C     0.829262    -0.207173    -3.587757
 H     1.375335    -1.091868    -3.931254
 H     1.407218     0.718746    -3.665380
 H     0.038892     1.046537    -1.763490
Co     0.004190    -0.422788    -1.757656
 C    -1.592728     1.743473     0.221317
 C    -3.306140     0.242319    -1.536879
 C    -2.321884    -0.962882     0.785468
 C     1.721119    -1.258610     1.022375
 C     3.329333    -0.729303    -1.296499
 C     2.195435     1.421097     0.208232
 P     1.747662    -0.218684    -0.495764
 P    -1.728836     0.109461    -0.593317
 C    -0.110853    -2.170076    -1.797150
 O    -0.180817    -3.317568    -1.869541
 C    -1.580310     2.902462    -0.574854
 H    -1.761624     2.823335    -1.650322
 C    -1.338863     1.883255     1.584837
 H    -1.363853     1.004546     2.232899
 C    -1.323572     4.145291    -0.025534
 H    -1.316311     5.048248    -0.639213
 C    -1.039680     3.126508     2.147549
 H    -0.819305     3.189186     3.213231
 C    -1.020430     4.266814     1.340321
 O    -0.714932     5.502923     1.769743
 C    -0.331423     5.680110     3.106941
 H     0.572604     5.096762     3.350404
 H    -0.103300     6.746206     3.227958
 H    -1.142212     5.405419     3.804162
 C    -4.242684     1.266281    -1.361181
 H    -4.041724     2.079510    -0.660317
 C    -3.599545    -0.787481    -2.439325
 H    -2.875325    -1.591107    -2.589709
 C    -5.441443     1.269452    -2.071591
 H    -6.168754     2.071863    -1.937578
 C    -4.796834    -0.804964    -3.144881
 H    -5.024336    -1.611198    -3.843975
 C    -5.712254     0.231443    -2.959901
Cl    -7.199685     0.228054    -3.845831
 C    -3.491616    -0.645799     1.492529
 H    -4.063457     0.247126     1.228846
 C    -1.621955    -2.118225     1.135012
 H    -0.704541    -2.381332     0.608808
 C    -3.943582    -1.452784     2.528478
 H    -4.852348    -1.204817     3.079144
 C    -2.066525    -2.943492     2.166501
 H    -1.509031    -3.838929     2.443353
 C    -3.222189    -2.602270     2.860597
Cl    -3.775860    -3.611983     4.153373
 C     1.123710    -0.772674     2.197887
 H     0.795189     0.267043     2.248281
 C     2.113890    -2.597686     0.997816
 H     2.588052    -3.015171     0.107463
 C     0.932137    -1.589209     3.299178
 H     0.459824    -1.214106     4.208896
 C     1.912372    -3.437616     2.094357
 H     2.230746    -4.478178     2.028742
 C     1.312593    -2.937596     3.254730
 O     1.052240    -3.667834     4.354982
 C     1.391911    -5.026819     4.361128
 H     2.478767    -5.179079     4.239560
 H     1.084202    -5.423335     5.336680
 H     0.864461    -5.584951     3.567351
 C     4.514826     0.006285    -1.190320
 H     4.536983     0.931291    -0.611989
 C     3.339989    -1.894601    -2.076639
 H     2.421568    -2.468997    -2.211047
 C     5.682290    -0.414636    -1.822914
 H     6.601498     0.167619    -1.740748
 C     4.502325    -2.337833    -2.697970
 H     4.503490    -3.250319    -3.296180
 C     5.672704    -1.591093    -2.567743
Cl     7.121233    -2.124649    -3.350598
 C     3.006126     1.533107     1.348555
 H     3.385281     0.634046     1.839238
 C     1.746110     2.591566    -0.405551
 H     1.114270     2.515256    -1.292929
 C     3.328328     2.776519     1.880418
 H     3.948624     2.860077     2.774232
 C     2.063456     3.845329     0.110742
 H     1.688145     4.755450    -0.358323
 C     2.842651     3.927793     1.260229
Cl     3.204394     5.479986     1.942745
