  62
scf done:    -3037.099053
 C    -3.547306     0.225599     0.501792
 H    -4.230971     0.047375    -0.335902
 H    -3.685346    -0.473211     1.333414
 C    -3.114070     1.548821     0.764819
 H    -3.466355     2.359929     0.117966
 H    -2.921636     1.860739     1.795923
 H    -1.345261     0.018586     1.379755
Co    -1.619492     0.447948    -0.013521
 C     0.665530    -1.821132     0.838613
 C    -1.954710    -2.884287     0.408815
 C    -0.320969    -2.160776    -1.848287
 C     1.598898     1.332588    -0.729432
 C    -0.009104     3.512094    -0.146901
 C     0.842375     1.735716     1.999500
 P     0.111992     1.713061     0.301682
 P    -0.833839    -1.538315    -0.184725
 C    -1.955958     0.766177    -1.697755
 O    -2.198004     0.923634    -2.813931
 C     1.955549    -1.787553     0.297850
 C     0.527134    -1.974343     2.226319
 C     2.925819    -2.067536     2.495207
 C     1.644037    -2.100199     3.046863
 C     3.075837    -1.909818     1.120046
 H     2.103030    -1.640629    -0.773866
 H     4.073074    -1.870702     0.675413
 H     3.804112    -2.162491     3.138159
 H     1.513373    -2.218611     4.125300
 H    -0.468442    -1.975305     2.676557
 H    -2.302277    -2.567189     1.403985
 C    -3.144857    -3.110201    -0.510575
 H    -2.839326    -3.530691    -1.480644
 H    -3.673868    -2.166870    -0.706567
 H    -1.369261    -3.807714     0.547903
 H    -3.860268    -3.813986    -0.058771
 H     0.454847    -1.462988    -2.202355
 C     0.143411    -3.604569    -1.951363
 H    -0.662374    -4.311521    -1.703896
 H     0.984122    -3.813005    -1.273090
 H    -1.188952    -1.973172    -2.501833
 H     0.476227    -3.834751    -2.975577
 C     1.404699     1.063798    -2.091505
 C     2.906470     1.307561    -0.229794
 C     3.774757     0.719290    -2.408905
 C     3.983341     0.998903    -1.060245
 C     2.479685     0.763114    -2.925117
 H     0.396354     1.083416    -2.509922
 H     2.302144     0.556491    -3.983433
 H     4.618612     0.473401    -3.057964
 H     4.994073     0.972703    -0.645089
 H     3.099976     1.508554     0.824460
 H    -0.309138     3.513750    -1.208102
 C    -0.969396     4.353860     0.675839
 H    -0.630083     4.458891     1.716924
 H    -1.976261     3.916650     0.691172
 H     1.011546     3.929188    -0.109312
 H    -1.045858     5.368532     0.255469
 H     1.586745     2.548358     2.048572
 C    -0.154584     1.845684     3.141588
 H    -0.890049     1.029664     3.087875
 H    -0.710763     2.793613     3.125821
 H     1.391149     0.783566     2.090243
 H     0.365617     1.777822     4.109355
