 114
scf done:    -3967.844317
 C     0.052084    -1.138299    -3.513995
 H     0.514567    -0.561688    -4.322862
 H     0.489154    -2.129323    -3.385026
 C    -1.310944    -0.931918    -3.202835
 H    -1.887841    -0.194126    -3.772031
 H    -1.913354    -1.766586    -2.828586
 H    -0.255974    -1.361949    -1.013442
Co    -0.147987    -0.097711    -1.778897
 C     2.398051    -2.076939    -0.508420
 C     3.185179     0.443400    -1.859249
 C     1.887539     0.407471     0.891206
 C    -1.180515     2.209157     0.432245
 C    -3.315920     0.909138    -1.247416
 C    -2.181507    -0.447380     1.060116
 P    -1.687360     0.589563    -0.397168
 P     1.792625    -0.335853    -0.846350
 C     0.110014     1.403649    -2.619041
 O     0.311315     2.351883    -3.246131
 H     1.936815    -2.282206     0.471416
 C     3.907918    -2.234928    -0.332881
 H     4.314115    -1.466342     0.336490
 H     4.398121    -2.104075    -1.313707
 C     4.250877    -3.623484     0.199154
 H     5.342687    -3.719802     0.315511
 H     3.822050    -3.729881     1.211510
 C     3.709113    -4.717589    -0.711687
 H     3.919151    -5.714122    -0.290022
 H     4.237574    -4.673488    -1.681582
 C     2.214171    -4.543667    -0.951542
 H     1.671030    -4.716535    -0.004426
 H     1.845700    -5.302086    -1.661420
 C     1.873306    -3.146374    -1.461919
 H     2.314867    -3.000086    -2.464065
 H     0.785570    -3.037462    -1.574987
 H     3.628750    -0.395312    -2.415830
 H     2.660964     1.053861    -2.606062
 C     4.257422     1.254415    -1.194835
 C     5.525357     0.707778    -0.963578
 H     5.726596    -0.315492    -1.284513
 C     4.018414     2.595977    -0.820885
 C     2.727103     3.284125    -1.155119
 H     1.842199     2.708069    -0.848683
 H     2.623701     3.433240    -2.241801
 H     2.670198     4.271008    -0.675599
 C     6.530382     1.432517    -0.329799
 H     7.507029     0.974254    -0.157958
 C     5.033687     3.307447    -0.171578
 H     4.841607     4.341305     0.128397
 C     6.278426     2.737112     0.085838
 H     7.051273     3.316968     0.595644
 H     2.113012     1.472921     0.746916
 H     0.844021     0.355422     1.227858
 C     2.796758    -0.165060     1.938625
 C     4.088796     0.352452     2.094953
 H     4.401004     1.190967     1.471333
 C     2.372732    -1.208328     2.791117
 C     0.954008    -1.706824     2.802661
 H     0.564877    -1.956000     1.804262
 H     0.278604    -0.944014     3.226712
 H     0.858418    -2.606190     3.426153
 C     4.982553    -0.185388     3.014877
 H     5.987296     0.234591     3.101962
 C     3.288605    -1.745054     3.703964
 H     2.964052    -2.562116     4.354444
 C     4.587707    -1.256499     3.812245
 H     5.280426    -1.699479     4.531676
 H    -0.083443     2.117541     0.383240
 C    -1.528154     2.426377     1.906058
 H    -1.196621     1.567913     2.509969
 H    -2.620731     2.494789     2.040942
 C    -0.867726     3.695720     2.439677
 H    -1.153135     3.851865     3.492629
 H     0.228783     3.556499     2.433201
 C    -1.220931     4.917367     1.600961
 H    -0.709876     5.812368     1.991073
 H    -2.304819     5.117156     1.687186
 C    -0.867386     4.695654     0.135921
 H     0.227940     4.599295     0.034668
 H    -1.159505     5.567384    -0.471367
 C    -1.531683     3.436768    -0.413217
 H    -2.623285     3.590891    -0.425553
 H    -1.231319     3.284013    -1.460179
 H    -3.154063     1.833937    -1.824679
 H    -3.358678     0.109320    -1.994270
 C    -4.605166     0.972893    -0.476681
 C    -4.860162     2.024005     0.413460
 H    -4.101684     2.794706     0.553249
 C    -5.609662    -0.001614    -0.674563
 C    -5.438588    -1.132241    -1.646381
 H    -4.568023    -1.756619    -1.396995
 H    -5.295214    -0.763245    -2.674775
 H    -6.323579    -1.782209    -1.645515
 C    -6.058870     2.124986     1.114569
 H    -6.222533     2.961185     1.798363
 C    -6.806392     0.108962     0.043632
 H    -7.577753    -0.650756    -0.108607
 C    -7.039801     1.154387     0.932564
 H    -7.985995     1.211580     1.475766
 H    -1.241788    -0.665223     1.591673
 H    -2.769050     0.202459     1.717472
 C    -2.941084    -1.728830     0.823867
 C    -2.491428    -2.683083    -0.096525
 H    -1.588861    -2.462997    -0.669525
 C    -4.102760    -2.005619     1.578556
 C    -4.613214    -1.059571     2.626450
 H    -4.849002    -0.070231     2.206679
 H    -3.873875    -0.910034     3.430195
 H    -5.531257    -1.448443     3.087044
 C    -3.174247    -3.879150    -0.303137
 H    -2.797778    -4.599732    -1.033096
 C    -4.783394    -3.206819     1.349054
 H    -5.688811    -3.413123     1.926441
 C    -4.335410    -4.140108     0.417833
 H    -4.889698    -5.068990     0.263197
