 102
scf done:    -4333.019449
 C     1.014121    -0.358548    -3.475912
 H     1.707000     0.393806    -3.867045
 H     1.458193    -1.353168    -3.378193
 C    -0.370720    -0.214505    -3.704112
 H    -0.717521     0.637924    -4.300192
 H    -1.018184    -1.091875    -3.763869
 H    -0.016578    -1.244256    -1.576510
Co     0.091728     0.207655    -1.777308
 C     1.420338    -1.506918     0.812081
 C     3.241468    -0.687872    -1.271520
 C     2.398967     1.200445     0.667558
 C    -1.680802     1.334784     0.815648
 C    -3.326793     0.637821    -1.385859
 C    -2.213722    -1.458215     0.170363
 P    -1.737514     0.154726    -0.592522
 P     1.718326    -0.149037    -0.391187
 C     0.238286     1.929510    -2.083977
 O     0.349037     3.040768    -2.365076
 C     0.898960    -2.727860     0.349144
 H     0.719945    -2.861875    -0.720320
 C     1.592082    -1.358453     2.188724
 H     1.990556    -0.424553     2.589136
 C     0.574224    -3.752076     1.220603
 H     0.156019    -4.692151     0.858517
 C     1.235001    -2.368219     3.084625
 H     1.362079    -2.196338     4.153790
 C     0.718444    -3.573608     2.602320
 O     0.320324    -4.600444     3.381516
 C     0.386028    -4.452470     4.770280
 H    -0.233892    -3.608589     5.122839
 H     0.000165    -5.382818     5.206597
 H     1.421977    -4.298578     5.121588
 C     3.754050    -1.981073    -1.222173
 H     3.278403    -2.716614    -0.570570
 C     3.883040     0.262054    -2.092270
 O     3.346535     1.496788    -2.085678
 C     3.856870     2.493351    -2.921718
 H     4.896579     2.755946    -2.657850
 H     3.214395     3.371163    -2.779346
 H     3.821296     2.191536    -3.983538
 C     4.873465    -2.345409    -1.973316
 H     5.256731    -3.366809    -1.920537
 C     5.006858    -0.093770    -2.841869
 H     5.503735     0.641690    -3.475389
 C     5.496067    -1.399314    -2.780103
 H     6.374055    -1.670186    -3.371705
 C     1.718849     2.413633     0.748843
 H     0.768127     2.517349     0.226592
 C     3.628681     1.077041     1.353143
 O     4.243455    -0.116323     1.276362
 C     5.526472    -0.282661     1.802471
 H     6.241969     0.436563     1.367289
 H     5.839305    -1.300158     1.535694
 H     5.538925    -0.178942     2.902235
 C     2.219702     3.490236     1.479791
 H     1.654617     4.422642     1.531650
 C     4.143132     2.155843     2.080085
 H     5.093534     2.063021     2.606350
 C     3.434776     3.356100     2.140116
 H     3.845558     4.189662     2.715544
 C    -0.885649     1.091364     1.946547
 H    -0.354891     0.144171     2.045643
 C    -2.271249     2.594928     0.699946
 H    -2.880058     2.830463    -0.176302
 C    -0.723908     2.047090     2.936551
 H    -0.096115     1.855503     3.808615
 C    -2.095940     3.577827     1.675013
 H    -2.569573     4.550147     1.536357
 C    -1.323031     3.305687     2.808247
 O    -1.088864     4.187367     3.803754
 C    -1.637555     5.469707     3.706137
 H    -2.741656     5.445778     3.675088
 H    -1.321194     6.018412     4.602596
 H    -1.272881     6.007368     2.812469
 C    -3.323592     1.042074    -2.718004
 H    -2.363331     1.059980    -3.233481
 C    -4.556181     0.606657    -0.690183
 O    -4.507074     0.249984     0.603627
 C    -5.685543     0.134145     1.344362
 H    -6.205583     1.103373     1.443452
 H    -5.390589    -0.216564     2.341493
 H    -6.378639    -0.600693     0.898829
 C    -4.500188     1.402134    -3.376068
 H    -4.470449     1.716074    -4.421408
 C    -5.740517     0.957027    -1.347118
 H    -6.693708     0.932235    -0.818286
 C    -5.705380     1.350736    -2.685376
 H    -6.638954     1.623744    -3.184120
 C    -2.336556    -1.681514     1.540846
 H    -2.198920    -0.849261     2.229695
 C    -2.476816    -2.536937    -0.701199
 O    -2.429673    -2.263721    -2.018087
 C    -2.690503    -3.274723    -2.947060
 H    -1.963737    -4.102302    -2.867874
 H    -2.598749    -2.816808    -3.939982
 H    -3.710736    -3.681413    -2.833201
 C    -2.650026    -2.939078     2.055081
 H    -2.719419    -3.084113     3.135126
 C    -2.791322    -3.801625    -0.192448
 H    -2.984238    -4.634827    -0.868357
 C    -2.867174    -4.000151     1.185058
 H    -3.102612    -4.994193     1.572710
