  94
scf done:    -4028.453490
 C    -0.772175    -2.036287    -2.385898
 H    -1.590550    -2.734568    -2.182247
 H    -1.016531    -1.276112    -3.133646
 C     0.562588    -2.440620    -2.199377
 H     0.762750    -3.470028    -1.882003
 H     1.366635    -1.991852    -2.790683
 H     0.400743    -0.114437    -1.608425
Co    -0.015225    -1.199272    -0.704396
 O    -1.617116     1.442238    -1.381696
 C    -3.249443    -0.689402    -1.047485
 C    -2.194509     0.687173     1.237003
 O     1.722953    -0.573878     1.851175
 C     3.367050    -1.169606    -0.243472
 C     2.004752     1.387095    -0.005149
 P     1.733745    -0.416734     0.188539
 P    -1.704399     0.090114    -0.436077
 C    -0.367800    -2.460911     0.470104
 O    -0.536110    -3.286116     1.253089
 C    -2.118450     2.750793    -1.121125
 H    -2.395748     2.825899    -0.056843
 C    -3.341514     3.032308    -1.973352
 H    -4.142460     2.314927    -1.756120
 H    -3.085953     2.967843    -3.042928
 H    -3.717579     4.047657    -1.773096
 C    -0.985389     3.717003    -1.395612
 H    -0.124779     3.488706    -0.755330
 H    -0.662750     3.635818    -2.445083
 H    -1.300695     4.754430    -1.205279
 C    -3.747921    -0.394929    -2.312756
 H    -3.249459     0.377722    -2.900376
 C    -3.857917    -1.716658    -0.302556
 O    -3.296822    -1.974933     0.895557
 C    -3.768040    -3.033363     1.677624
 H    -4.808989    -2.865093     2.006045
 H    -3.113990    -3.082812     2.556484
 H    -3.710668    -3.994617     1.138276
 C    -4.855546    -1.071108    -2.829014
 H    -5.232691    -0.823950    -3.823769
 C    -4.969134    -2.395221    -0.807978
 H    -5.448873    -3.183348    -0.226652
 C    -5.465555    -2.064284    -2.070964
 H    -6.333120    -2.601865    -2.461616
 C    -1.275761     0.511400     2.271717
 H    -0.304318     0.067143     2.045961
 C    -3.470167     1.202541     1.557038
 O    -4.337069     1.353057     0.538342
 C    -5.673331     1.674243     0.794662
 H    -6.140671     0.946632     1.480293
 H    -6.191596     1.634933    -0.172000
 H    -5.780952     2.688138     1.218996
 C    -1.581512     0.853170     3.589348
 H    -0.840017     0.703338     4.376643
 C    -3.787399     1.535360     2.877667
 H    -4.772199     1.932064     3.125610
 C    -2.839455     1.363776     3.886194
 H    -3.100254     1.629829     4.913838
 C     2.834326    -0.421702     2.737376
 H     3.571262     0.259749     2.277985
 C     3.472172    -1.775096     3.001659
 H     3.875321    -2.219053     2.082656
 H     2.720555    -2.464492     3.416434
 H     4.294575    -1.677650     3.726906
 C     2.307653     0.194907     4.020468
 H     1.863243     1.184473     3.844345
 H     1.536214    -0.456554     4.459663
 H     3.119855     0.311310     4.753469
 C     3.330646    -2.519397    -0.596756
 H     2.355212    -3.005648    -0.626768
 C     4.627120    -0.533501    -0.191690
 O     4.660026     0.748576     0.219809
 C     5.843123     1.488278     0.137759
 H     6.619639     1.104187     0.822742
 H     5.583001     2.514319     0.427757
 H     6.247159     1.497080    -0.889634
 C     4.484131    -3.238001    -0.905609
 H     4.417095    -4.294323    -1.173044
 C     5.786875    -1.240731    -0.527804
 H     6.758612    -0.747374    -0.497921
 C     5.711957    -2.586978    -0.881374
 H     6.629303    -3.125048    -1.133268
 C     1.746306     2.275180     1.033126
 H     1.364662     1.883968     1.976160
 C     2.456634     1.899869    -1.236782
 O     2.680040     0.985590    -2.198617
 C     3.074397     1.399353    -3.473960
 H     2.330920     2.076063    -3.929619
 H     3.153643     0.491725    -4.085109
 H     4.056004     1.905693    -3.455549
 C     1.970623     3.647068     0.887700
 H     1.763747     4.325421     1.717894
 C     2.684063     3.268217    -1.392078
 H     3.043966     3.666821    -2.340986
 C     2.450542     4.135254    -0.321622
 H     2.630742     5.205145    -0.451856
