 102
scf done:    -3960.610995
 C    -1.237533    -1.801310    -2.777858
 H    -1.870502    -2.455840    -2.171754
 H    -1.772519    -1.318439    -3.603601
 C     0.141295    -2.073761    -2.914401
 H     0.591288    -2.925378    -2.395722
 H     0.653888    -1.809865    -3.845415
 H    -0.065482    -1.541362    -0.594199
Co    -0.136545    -0.515360    -1.668121
 C     3.058601    -1.350070    -1.239662
 C     2.589964     1.459088    -1.180861
 C     1.658679    -0.002301     1.146361
 C    -1.318217     2.132065     0.075800
 C    -3.264736     0.608709    -1.413268
 C    -2.254109    -0.310110     1.158650
 P    -1.680990     0.399950    -0.457655
 P     1.758804    -0.155022    -0.721327
 C     0.009472     0.695030    -2.916123
 O     0.156072     1.474083    -3.753389
 C     3.791139    -2.216394    -0.422837
 C     3.307357    -1.370299    -2.622650
 C     5.011925    -3.054647    -2.339851
 C     4.279400    -2.201049    -3.166895
 C     4.756398    -3.062574    -0.972788
 H     3.632984    -2.235406     0.652017
 H     5.317133    -3.727861    -0.311804
 H     5.772972    -3.713837    -2.764208
 H     4.458752    -2.190093    -4.244689
 H     2.723967    -0.725920    -3.285152
 H     2.815677     1.364456    -2.254229
 H     1.794775     2.213739    -1.102210
 C     3.809548     1.845551    -0.399334
 C     5.011592     1.149929    -0.592186
 H     5.051331     0.354650    -1.338517
 C     3.769993     2.893506     0.546748
 C     2.536620     3.724601     0.754583
 H     1.660110     3.128435     1.050353
 H     2.247006     4.257794    -0.164836
 H     2.698400     4.477537     1.537958
 C     6.148363     1.444077     0.153504
 H     7.067592     0.877621    -0.011759
 C     4.924883     3.177011     1.286606
 H     4.892644     3.986603     2.020934
 C     6.104012     2.458698     1.106682
 H     6.987678     2.699707     1.702352
 H     1.781397     1.074293     1.328686
 H     0.609448    -0.238957     1.354906
 C     2.550497    -0.764997     2.081166
 C     3.763648    -0.208181     2.497922
 H     4.047269     0.781331     2.135187
 C     2.178627    -2.044895     2.545987
 C     0.897062    -2.690230     2.107066
 H     0.801750    -2.702106     1.009542
 H     0.013090    -2.154316     2.491259
 H     0.830480    -3.726035     2.465895
 C     4.622859    -0.903812     3.343727
 H     5.571152    -0.451658     3.643129
 C     3.050973    -2.726195     3.400863
 H     2.769612    -3.721433     3.755940
 C     4.267026    -2.171548     3.796003
 H     4.932387    -2.730842     4.458144
 C    -1.132535     3.106114    -0.918464
 C    -1.202611     2.527718     1.414729
 C    -0.801177     4.819505     0.753334
 C    -0.946757     3.858448     1.749343
 C    -0.888425     4.434852    -0.585401
 H    -1.190384     2.829718    -1.973564
 H    -0.764689     5.175475    -1.379173
 H    -0.609866     5.862336     1.016198
 H    -0.866355     4.142066     2.801526
 H    -1.322398     1.803217     2.220854
 H    -3.020477     1.363476    -2.179091
 H    -3.367397    -0.338299    -1.955613
 C    -4.528014     0.963345    -0.685036
 C    -4.643247     2.195484    -0.026533
 H    -3.800295     2.889261    -0.044744
 C    -5.627465     0.076539    -0.680110
 C    -5.582838    -1.245662    -1.390727
 H    -4.765790    -1.883108    -1.020272
 H    -5.434867    -1.117419    -2.475263
 H    -6.522114    -1.795842    -1.245819
 C    -5.811029     2.556828     0.640450
 H    -5.872880     3.523878     1.144991
 C    -6.793953     0.459523    -0.007658
 H    -7.645408    -0.226431    -0.004399
 C    -6.894613     1.682163     0.650759
 H    -7.818968     1.950736     1.167707
 H    -1.347896    -0.433243     1.775538
 H    -2.859023     0.469659     1.636656
 C    -3.029574    -1.599709     1.127751
 C    -2.544695    -2.708930     0.426523
 H    -1.595885    -2.609716    -0.103977
 C    -4.236373    -1.715766     1.851559
 C    -4.769608    -0.591468     2.691746
 H    -4.928135     0.325962     2.105661
 H    -4.078486    -0.343405     3.514142
 H    -5.734146    -0.865103     3.140062
 C    -3.248860    -3.909747     0.389068
 H    -2.849762    -4.756689    -0.173957
 C    -4.933190    -2.928301     1.797451
 H    -5.873771    -3.016705     2.348018
 C    -4.458074    -4.016808     1.070206
 H    -5.028143    -4.948644     1.045761
