  90
scf done:    -3803.480626
 C    -0.549551    -0.918302     3.240484
 H    -0.966743    -0.202814     3.957312
 H    -1.170018    -1.807064     3.092780
 C     0.848284    -0.987230     3.065977
 H     1.506666    -0.321350     3.633362
 H     1.319980    -1.939645     2.804159
 H    -0.191136    -1.454900     0.941584
Co    -0.022462    -0.084755     1.478302
 C    -1.737477    -0.687297    -1.391370
 C    -3.241459    -0.908850     1.038373
 C    -2.579250     1.649778    -0.013115
 C     1.679511     1.355240    -1.086334
 C     3.315802     0.395032     1.048181
 C     2.180603    -1.458178    -0.787050
 P     1.720566     0.030449     0.192686
 P    -1.822465     0.004338     0.314381
 C    -0.049981     1.550604     2.106275
 O    -0.111651     2.612200     2.545980
 C    -2.293058    -0.026551    -2.493934
 C    -1.046891    -1.887276    -1.603197
 C    -1.420221    -1.723303    -3.981787
 C    -0.885604    -2.401973    -2.886618
 C    -2.132011    -0.541437    -3.779869
 H    -2.836489     0.909107    -2.350658
 H    -2.560986    -0.007665    -4.631636
 H    -1.282107    -2.115489    -4.992319
 H    -0.319170    -3.325497    -3.028098
 H    -0.604933    -2.405609    -0.751293
 C    -3.653960    -0.553614     2.330186
 H    -3.129784     0.240713     2.866135
 C    -3.916001    -1.926746     0.363651
 H    -3.606988    -2.200416    -0.648317
 C    -4.730348    -1.205780     2.918323
 H    -5.056807    -0.920246     3.921334
 C    -4.992103    -2.605990     0.952870
 C    -5.678393    -3.719230     0.215140
 H    -5.061098    -4.632849     0.217472
 H    -6.645564    -3.971615     0.672430
 H    -5.855764    -3.453082    -0.837858
 C    -5.392159    -2.228372     2.236519
 H    -6.234275    -2.740623     2.710165
 C    -3.961997     1.868890     0.008293
 H    -4.643871     1.049542     0.244152
 C    -1.723621     2.711945    -0.320842
 H    -0.643703     2.543123    -0.341942
 C    -4.464632     3.138077    -0.266909
 H    -5.543466     3.311084    -0.241480
 C    -2.215612     3.991162    -0.601004
 C    -1.272852     5.110629    -0.930337
 H    -0.401530     5.103069    -0.258857
 H    -0.883051     5.005775    -1.955477
 H    -1.765537     6.090115    -0.852113
 C    -3.599981     4.189170    -0.565834
 H    -4.005136     5.184543    -0.768819
 C     2.263895     2.606955    -0.856801
 C     0.930822     1.166700    -2.257466
 C     1.363893     3.444005    -2.940015
 C     0.777329     2.201033    -3.176326
 C     2.105518     3.642671    -1.776865
 H     2.855832     2.775078     0.045313
 H     2.571357     4.611790    -1.582005
 H     1.244915     4.255608    -3.662006
 H     0.189232     2.029168    -4.080984
 H     0.463706     0.201847    -2.458464
 C     3.318437     1.276218     2.136041
 H     2.385670     1.722327     2.482914
 C     4.527255    -0.170725     0.636654
 H     4.539972    -0.866542    -0.205089
 C     4.514661     1.597358     2.772988
 H     4.508834     2.295449     3.613643
 C     5.733634     0.127370     1.279004
 C     7.014357    -0.523681     0.842815
 H     7.254468    -1.387874     1.484515
 H     6.946812    -0.891326    -0.190938
 H     7.863214     0.173348     0.905605
 C     5.712172     1.026383     2.350822
 H     6.645312     1.278163     2.862768
 C     2.780585    -1.390518    -2.049724
 H     2.979846    -0.422971    -2.513649
 C     1.956249    -2.711478    -0.210920
 H     1.476103    -2.757347     0.770216
 C     3.114004    -2.563237    -2.723488
 H     3.566553    -2.506467    -3.716584
 C     2.297249    -3.897660    -0.868171
 C     2.061323    -5.226924    -0.211512
 H     2.870644    -5.462825     0.499252
 H     1.120289    -5.231734     0.358135
 H     2.022288    -6.041711    -0.948505
 C     2.870628    -3.805434    -2.141678
 H     3.130327    -4.719781    -2.682739
