  86
scf done:    -3875.235995
 C     0.500137    -3.854428     0.126760
 H     0.796899    -4.359577    -0.798900
 H     1.236236    -3.941133     0.931440
 C    -0.871209    -3.712232     0.427495
 H    -1.627157    -4.094578    -0.266303
 H    -1.203825    -3.712726     1.470255
 H     0.278548    -1.779505     1.287522
Co    -0.080181    -1.940022    -0.141066
 C     1.774242     0.679193     0.956018
 C     3.234158    -1.702515     0.296942
 C     2.248662     0.006578    -1.751347
 C    -1.789640     0.924290    -0.646062
 C    -3.438270    -1.339082    -0.104004
 C    -2.028310    -0.100844     2.033749
 P    -1.770347    -0.651744     0.297918
 P     1.720616    -0.772654    -0.167890
 C    -0.270478    -2.116429    -1.872901
 O    -0.343068    -2.258100    -3.012689
 C     1.249564     0.564768     2.253672
 H     0.859141    -0.397109     2.588497
 C     2.260869     1.925677     0.555394
 H     2.675145     2.053359    -0.446176
 C     1.185284     1.654595     3.105417
 H     0.752670     1.565631     4.103577
 C     2.201180     3.034813     1.400033
 H     2.579355     3.992725     1.042141
 C     1.650636     2.908111     2.680651
 O     1.530348     3.919632     3.560619
 C     1.957432     5.198124     3.182317
 H     1.405249     5.571121     2.301491
 H     1.757882     5.861592     4.033267
 H     3.038467     5.221463     2.958142
 C     3.551429    -2.850701    -0.441733
 C     4.069772    -1.320072     1.349777
 C     5.515251    -3.209483     0.917041
 C     5.201972    -2.074833     1.660993
 C     4.688318    -3.593265    -0.140418
 H     2.897785    -3.158627    -1.261273
 H     4.927115    -4.482558    -0.728806
 H     6.403292    -3.797912     1.160264
 H     5.844784    -1.767734     2.489727
 H     3.837621    -0.423839     1.929048
 C     1.264957     0.610716    -2.544237
 C     3.585345     0.071122    -2.162634
 C     2.943905     1.336245    -4.120838
 C     3.928650     0.727921    -3.343910
 C     1.610983     1.278154    -3.715686
 H     0.218635     0.567557    -2.237013
 H     0.829017     1.752145    -4.313765
 H     3.215810     1.853138    -5.044484
 H     4.975196     0.766375    -3.656344
 H     4.365124    -0.392022    -1.554226
 C    -1.015419     2.020730    -0.227494
 H    -0.518501     2.002371     0.743491
 C    -2.398554     0.995358    -1.901173
 H    -3.010245     0.163813    -2.258457
 C    -0.854016     3.133509    -1.036160
 H    -0.242825     3.977949    -0.712844
 C    -2.236097     2.107102    -2.729392
 H    -2.725561     2.116766    -3.703483
 C    -1.452578     3.184206    -2.302518
 O    -1.218888     4.293765    -3.031654
 C    -1.777516     4.387854    -4.311284
 H    -2.881216     4.360945    -4.282406
 H    -1.457420     5.352382    -4.725384
 H    -1.422474     3.579618    -4.975523
 C    -3.571930    -2.209129    -1.193485
 C    -4.581567    -1.009650     0.634422
 C    -5.950634    -2.381333    -0.810856
 C    -5.826469    -1.529282     0.284969
 C    -4.819085    -2.717226    -1.551650
 H    -2.691782    -2.490627    -1.772661
 H    -4.902099    -3.389337    -2.409139
 H    -6.927362    -2.788488    -1.083304
 H    -6.706211    -1.265565     0.877208
 H    -4.501320    -0.345798     1.497030
 C    -1.684419    -0.984260     3.063467
 C    -2.586263     1.138976     2.367788
 C    -2.407131     0.616616     4.720794
 C    -2.765371     1.498393     3.702865
 C    -1.874972    -0.631429     4.396894
 H    -1.241158    -1.948873     2.806050
 H    -1.597788    -1.332527     5.187829
 H    -2.544716     0.900677     5.766960
 H    -3.187561     2.476119     3.947238
 H    -2.877946     1.835814     1.579442
