 102
scf done:    -4333.176100
 C    -0.119793    -1.083238    -3.627836
 H    -0.291239    -2.149796    -3.461966
 H    -0.807481    -0.626366    -4.346631
 C     1.167453    -0.538916    -3.447083
 H     1.996037    -1.187834    -3.145696
 H     1.472112     0.346737    -4.014304
 H     0.371551    -1.372868    -1.309607
Co    -0.025489    -0.070807    -1.872854
 C     2.874341    -0.568390    -0.183686
 O     2.520073     1.819171    -1.178971
 O     1.069381     1.137350     0.855718
 C    -2.811956     0.548833    -0.018059
 O    -2.632456    -1.834822    -1.058698
 O    -0.979926    -1.246177     0.826144
 P    -1.574867    -0.622854    -0.617355
 P     1.544233     0.565629    -0.652934
 C    -0.756697     1.384033    -2.557984
 O    -1.305315     2.267271    -3.039667
 C     4.232935    -0.227603    -0.238051
 H     4.524178     0.752748    -0.617589
 C     2.513424    -1.823766     0.312031
 H     1.455648    -2.093029     0.374901
 C     5.199894    -1.125421     0.184850
 H     6.262095    -0.877369     0.144739
 C     3.475835    -2.730394     0.747550
 H     3.158921    -3.698807     1.134972
 C     4.831455    -2.383332     0.683101
 O     5.837765    -3.186795     1.072560
 C     5.533265    -4.452928     1.587390
 H     5.006665    -5.081331     0.847580
 H     6.489561    -4.928346     1.839377
 H     4.915912    -4.386975     2.500553
 C     1.957123     2.906872    -1.787320
 C     0.990614     3.671379    -1.132834
 H     0.690115     3.391586    -0.121168
 C     2.368007     3.236108    -3.078097
 H     3.123788     2.619679    -3.567581
 C     0.390575     4.759421    -1.773391
 C    -0.723798     5.504642    -1.099722
 H    -1.677111     4.968937    -1.247090
 H    -0.556112     5.588996    -0.015485
 H    -0.844692     6.516783    -1.510995
 C     1.792131     4.335586    -3.707525
 H     2.105723     4.602423    -4.719629
 C     0.807843     5.087188    -3.066971
 H     0.349990     5.935072    -3.582495
 C     1.939157     1.284981     1.907301
 C     2.823087     2.360984     1.951530
 H     2.834997     3.074103     1.125138
 C     1.905323     0.346548     2.939221
 H     1.209486    -0.490681     2.872598
 C     3.695275     2.518227     3.035057
 C     4.668895     3.660973     3.058045
 H     5.503298     3.479113     2.360613
 H     4.191050     4.603165     2.749997
 H     5.098687     3.805395     4.059227
 C     2.765141     0.504483     4.020832
 H     2.745074    -0.222851     4.836053
 C     3.652686     1.579019     4.070355
 H     4.324868     1.690445     4.925132
 C    -4.148744     0.213888     0.243913
 H    -4.501250    -0.795339     0.025870
 C    -2.369750     1.842016     0.268507
 H    -1.325583     2.105422     0.083394
 C    -5.013965     1.153844     0.777103
 H    -6.057510     0.912301     0.986870
 C    -3.229588     2.793934     0.809544
 H    -2.851379     3.793484     1.023877
 C    -4.562719     2.450977     1.066812
 O    -5.473615     3.294165     1.584271
 C    -5.085116     4.603688     1.893888
 H    -4.736422     5.150305     1.000040
 H    -5.972964     5.108663     2.294694
 H    -4.287136     4.625145     2.656832
 C    -2.217861    -2.979922    -1.678068
 C    -1.133192    -3.717255    -1.204184
 H    -0.606088    -3.376850    -0.311882
 C    -2.922293    -3.401110    -2.806616
 H    -3.764531    -2.802672    -3.157335
 C    -0.707569    -4.868289    -1.877000
 C     0.488211    -5.622991    -1.371703
 H     0.308034    -6.021571    -0.360264
 H     0.739853    -6.467984    -2.027431
 H     1.370092    -4.965316    -1.309228
 C    -2.514815    -4.556060    -3.464371
 H    -3.056003    -4.889697    -4.353023
 C    -1.410503    -5.280484    -3.012561
 H    -1.090014    -6.176655    -3.549663
 C    -1.768560    -1.374942     1.941486
 C    -2.574564    -2.499021     2.102184
 H    -2.580686    -3.263254     1.321916
 C    -1.741249    -0.369015     2.908286
 H    -1.111140     0.506069     2.744991
 C    -3.376208    -2.639177     3.241578
 C    -4.232956    -3.860127     3.414312
 H    -4.801365    -4.082904     2.498437
 H    -3.617465    -4.747554     3.635569
 H    -4.948428    -3.736979     4.239342
 C    -2.536133    -0.505240     4.040931
 H    -2.528938     0.278443     4.802256
 C    -3.348041    -1.627395     4.206602
 H    -3.973333    -1.718793     5.098544
