  90
scf done:    -3803.479434
 C    -0.510713     2.917995    -1.597418
 H    -1.127796     2.922631    -2.502393
 H    -0.926334     3.517970    -0.780988
 C     0.891201     2.782250    -1.713886
 H     1.340076     2.659522    -2.706010
 H     1.543563     3.271257    -0.984644
 H     0.173232     1.732978     0.334098
Co     0.068944     1.086104    -0.990823
 C    -0.958393    -0.168469     1.891081
 C    -2.963374     1.363101     0.545814
 C    -2.317258    -1.318823    -0.397443
 C     1.894268    -1.682137    -0.109441
 C     3.264300     0.257535    -1.680393
 C     2.738362     0.748084     1.150507
 P     1.904616     0.137020    -0.396040
 P    -1.513566     0.253045     0.187833
 C    -0.235449     0.279022    -2.509401
 O    -0.483673    -0.261167    -3.497851
 C    -0.389180    -1.412305     2.190115
 C    -0.989607     0.807697     2.897359
 C     0.107872    -0.689765     4.444099
 C    -0.464544     0.550123     4.161745
 C     0.140149    -1.669463     3.453928
 H    -0.345065    -2.198216     1.434803
 H     0.584351    -2.646519     3.657829
 H     0.523598    -0.891668     5.433943
 H    -0.499638     1.326129     4.930300
 H    -1.420352     1.790334     2.692534
 H    -2.534615     2.372347     0.657722
 H    -3.397739     1.071190     1.512954
 C    -4.040045     1.359283    -0.503658
 C    -5.381456     1.262092    -0.117498
 H    -5.627584     1.173598     0.943968
 C    -3.743147     1.437412    -1.869729
 H    -2.700035     1.517540    -2.179721
 C    -6.399790     1.241476    -1.066428
 H    -7.439604     1.156457    -0.741673
 C    -4.759834     1.406002    -2.821737
 H    -4.505464     1.460324    -3.883177
 C    -6.092774     1.308216    -2.424489
 H    -6.889838     1.283955    -3.171546
 H    -1.565432    -2.108068    -0.232783
 H    -2.394067    -1.209661    -1.489020
 C    -3.655186    -1.704114     0.165208
 C    -4.729820    -1.916343    -0.706639
 H    -4.579006    -1.780719    -1.780856
 C    -3.877706    -1.851798     1.541033
 H    -3.056613    -1.695625     2.243390
 C    -5.989559    -2.260871    -0.225362
 H    -6.813405    -2.410875    -0.927137
 C    -5.140043    -2.189099     2.025438
 H    -5.292971    -2.295136     3.102421
 C    -6.201909    -2.394527     1.145377
 H    -7.191015    -2.658225     1.527559
 C     1.097118    -2.468967    -0.950907
 C     2.645895    -2.318150     0.885000
 C     1.781758    -4.472824     0.209516
 C     2.584869    -3.700909     1.047008
 C     1.043813    -3.852793    -0.798562
 H     0.508662    -1.993337    -1.737846
 H     0.416119    -4.447844    -1.466377
 H     1.733981    -5.556696     0.338642
 H     3.175763    -4.178531     1.832369
 H     3.290162    -1.740120     1.548047
 H     3.562792     1.316923    -1.694885
 H     2.756644     0.060655    -2.636374
 C     4.422232    -0.669406    -1.485029
 C     4.381928    -1.964391    -2.021983
 H     3.521496    -2.265419    -2.624370
 C     5.541283    -0.310299    -0.722896
 H     5.617083     0.699753    -0.314691
 C     5.409193    -2.872887    -1.788476
 H     5.349593    -3.877000    -2.215085
 C     6.572839    -1.217862    -0.485329
 H     7.435697    -0.911359     0.111054
 C     6.507889    -2.505912    -1.011747
 H     7.314678    -3.218643    -0.825518
 H     3.740908     0.298205     1.213071
 H     2.131578     0.345550     1.977186
 C     2.814075     2.242402     1.240435
 C     1.808810     2.962395     1.898408
 H     1.002392     2.413798     2.387436
 C     3.858022     2.961426     0.645737
 H     4.667374     2.427408     0.144192
 C     1.828768     4.354046     1.932483
 H     1.029666     4.894122     2.446175
 C     3.883602     4.354453     0.679738
 H     4.706960     4.892389     0.203908
 C     2.862518     5.057529     1.315459
 H     2.876498     6.149625     1.337397
