  54
scf done:    -3379.112995
 C    -0.525767    -3.727279    -0.370151
 H    -0.933672    -4.045557    -1.334540
 H     0.518981    -4.009028    -0.219183
 C    -1.384486    -3.533277     0.729124
 H    -2.456874    -3.720446     0.610700
 H    -1.014104    -3.686972     1.746621
 H     0.322120    -1.901872     0.935056
Co    -0.773284    -1.749226    -0.033008
 C     2.237352    -0.164700    -0.210901
 O     1.678605    -2.190112    -1.914858
 O     0.715248     0.154928    -2.269220
 C    -1.535541     1.436051     0.480863
 O    -2.690169    -0.188917     2.136308
 O    -0.149313     0.141750     2.406643
 P    -1.286059    -0.187727     1.269615
 P     0.875591    -1.007552    -1.102279
 C    -2.142229    -1.580194    -1.122906
 O    -3.071625    -1.507559    -1.794001
 C     2.842384     0.996731    -0.709957
 H     2.479854     1.421033    -1.647394
 C     2.698030    -0.697089     0.998856
 H     2.221513    -1.589490     1.410943
 C     3.878142     1.617153    -0.017307
 H     4.354947     2.525502    -0.390441
 C     3.738061    -0.093213     1.698072
 H     4.102740    -0.496896     2.644176
 C     4.313026     1.061132     1.180146
 F     5.300374     1.651254     1.848985
 C     2.842385    -1.922942    -2.664658
 H     2.665176    -1.137814    -3.417518
 H     3.677730    -1.607908    -2.016418
 H     3.120763    -2.854513    -3.176305
 C    -0.475525     0.310896    -3.003053
 H    -0.810687    -0.636321    -3.455115
 H    -1.284057     0.714154    -2.372019
 H    -0.268382     1.030277    -3.807639
 C    -2.801006     1.836810     0.038297
 H    -3.675057     1.235123     0.295314
 C    -0.418663     2.215985     0.156161
 H     0.574580     1.907643     0.490617
 C    -2.952489     2.994093    -0.721096
 H    -3.930644     3.323767    -1.076016
 C    -0.557460     3.377186    -0.596895
 H     0.302266     3.997426    -0.856626
 C    -1.825656     3.747346    -1.030629
 F    -1.964480     4.852720    -1.759098
 C    -3.193944    -1.394538     2.669602
 H    -3.493715    -2.089970     1.871426
 H    -2.454615    -1.899425     3.312683
 H    -4.073085    -1.135957     3.275855
 C    -0.344464     1.147053     3.379363
 H    -0.501631     2.136144     2.918106
 H    -1.211395     0.919701     4.018971
 H     0.565015     1.179981     3.994362
