  94
scf done:    -4104.275896
 C    -0.688943     0.026343    -3.554567
 H    -1.576299    -0.611156    -3.531164
 H    -0.821658     0.959655    -4.110912
 C     0.592690    -0.547591    -3.445167
 H     0.696145    -1.632706    -3.342600
 H     1.454823    -0.053464    -3.905000
 H    -0.602375    -0.956243    -1.364632
Co     0.054972     0.322966    -1.689882
 C     1.671512    -2.400608    -0.534313
 O     3.163363    -0.298925    -1.001338
 O     1.560361    -0.226624     1.047584
 C    -1.567783     2.404634     0.464349
 O    -3.062225     0.758516    -0.905976
 O    -1.544269    -0.250192     0.909887
 P    -1.478855     0.806686    -0.391726
 P     1.568932    -0.588465    -0.584438
 C     0.616844     1.959606    -2.052359
 O     0.890723     3.038872    -2.320666
 C     0.571322    -3.084498     0.000014
 C     2.765044    -3.117539    -1.024117
 C     1.662045    -5.190382    -0.449919
 C     2.755217    -4.511622    -0.984075
 C     0.571025    -4.474801     0.046264
 H    -0.281332    -2.518312     0.386373
 H    -0.284741    -5.003778     0.472551
 H     1.658932    -6.282630    -0.418317
 H     3.610249    -5.070542    -1.371952
 H     3.620225    -2.577257    -1.432921
 C     3.547213     0.973276    -1.332640
 C     3.422799     2.011962    -0.409722
 H     3.025032     1.791736     0.583349
 C     4.059756     1.208674    -2.606450
 H     4.143549     0.377684    -3.308769
 C     3.778422     3.317634    -0.759385
 C     3.544667     4.446208     0.200915
 H     2.516917     4.831063     0.087113
 H     3.662185     4.120675     1.244981
 H     4.232439     5.284413     0.019848
 C     4.439823     2.503540    -2.948122
 H     4.842419     2.702172    -3.944241
 C     4.294814     3.549504    -2.038707
 H     4.578728     4.564235    -2.328601
 C     2.190229    -0.962632     2.020793
 C     3.572471    -1.135451     2.017926
 H     4.161598    -0.700880     1.208641
 C     1.403006    -1.515816     3.031088
 H     0.321939    -1.374628     3.000031
 C     4.195170    -1.870930     3.033409
 C     5.681314    -2.081241     3.002609
 H     5.959850    -2.785748     2.201669
 H     6.216293    -1.140015     2.804556
 H     6.051122    -2.492467     3.952278
 C     2.021211    -2.236481     4.047206
 H     1.414356    -2.670427     4.845590
 C     3.404422    -2.414432     4.050447
 H     3.877982    -2.986328     4.852579
 C    -2.764276     3.081112     0.719418
 C    -0.357441     2.926321     0.936987
 C    -1.540087     4.785115     1.919348
 C    -0.345043     4.111879     1.666105
 C    -2.745935     4.270356     1.444462
 H    -3.703626     2.665745     0.351592
 H    -3.681848     4.797628     1.643935
 H    -1.531410     5.717225     2.489647
 H     0.601558     4.511661     2.037437
 H     0.573417     2.386480     0.743640
 C    -3.555701    -0.239519    -1.698805
 C    -3.277428    -1.582965    -1.448182
 H    -2.652479    -1.851553    -0.595479
 C    -4.364367     0.128615    -2.774786
 H    -4.562368     1.187302    -2.949405
 C    -3.770958    -2.581124    -2.296358
 C    -3.429275    -4.018084    -2.027048
 H    -2.339742    -4.154279    -1.939016
 H    -3.875976    -4.360867    -1.079633
 H    -3.792703    -4.676883    -2.827768
 C    -4.872807    -0.862559    -3.606468
 H    -5.500955    -0.583336    -4.455797
 C    -4.572281    -2.206426    -3.378487
 H    -4.963974    -2.973905    -4.050660
 C    -2.301549     0.011138     2.025432
 C    -3.655428    -0.314833     2.042235
 H    -4.105531    -0.761158     1.153074
 C    -1.692001     0.591671     3.138274
 H    -0.634189     0.852760     3.090716
 C    -4.430904    -0.064591     3.180409
 C    -5.885056    -0.437983     3.198874
 H    -6.418653     0.059458     4.020934
 H    -6.380332    -0.167947     2.254134
 H    -6.011333    -1.525373     3.330805
 C    -2.459641     0.841981     4.270793
 H    -1.994991     1.302827     5.145692
 C    -3.816209     0.519972     4.292693
 H    -4.409693     0.727996     5.186792
