 110
scf done:    -4561.873993
 C     0.401820    -0.111322    -2.725589
 H     1.285405    -0.690690    -3.012682
 H    -0.514509    -0.397925    -3.246224
 C     0.540932     1.183195    -2.196921
 H     1.541323     1.611674    -2.089844
 H    -0.246746     1.928186    -2.331369
 H    -0.052493     0.824592     0.401614
Co     0.088154    -0.140605    -0.716668
 C    -2.635243     1.937298    -0.744010
 C    -3.475648    -0.611836    -1.120266
 C    -2.346767    -0.090687     1.454452
 C     2.096255    -0.306184     2.005527
 C     3.085204    -1.274716    -0.611379
 C     3.061337     1.574974     0.114228
 P     2.036868     0.024907     0.192452
 P    -2.009430     0.247804    -0.330336
 C    -0.041377    -1.869478    -0.552068
 O    -0.129066    -3.022436    -0.489895
 C    -3.154013     2.895251     0.132420
 C    -2.604443     2.234377    -2.113986
 C    -3.515892     4.431779    -1.704116
 C    -3.034109     3.470692    -2.591090
 C    -3.584891     4.132375    -0.344079
 H    -3.232660     2.674195     1.193974
 H    -3.985895     4.868233     0.358043
 H    -3.851185     5.404291    -2.072951
 H    -2.994831     3.679581    -3.662971
 H    -2.254659     1.477869    -2.821538
 C    -4.778502    -0.330148    -0.660492
 O    -4.873283     0.553257     0.349063
 C    -6.122006     0.922268     0.851711
 H    -5.930673     1.663269     1.638565
 H    -6.758249     1.381771     0.075471
 H    -6.656410     0.063138     1.293801
 C    -3.342140    -1.582802    -2.128396
 O    -2.096490    -1.855174    -2.542542
 C    -1.840476    -2.959236    -3.358278
 H    -0.748609    -3.024984    -3.447504
 H    -2.279745    -2.842350    -4.364958
 H    -2.217042    -3.893261    -2.906487
 C    -4.461356    -2.233828    -2.668487
 H    -4.340383    -2.979753    -3.452959
 C    -5.903338    -0.964272    -1.202801
 H    -6.903821    -0.729449    -0.841957
 C    -5.729306    -1.913188    -2.202719
 H    -6.602484    -2.414337    -2.627746
 C    -2.798356    -1.368581     1.848960
 O    -2.938536    -2.274217     0.866886
 C    -3.262354    -3.600119     1.158287
 H    -3.264509    -4.131249     0.198071
 H    -2.513815    -4.064156     1.823700
 H    -4.262517    -3.688290     1.617505
 C    -1.965466     0.794699     2.479915
 O    -1.313897     1.913100     2.108126
 C    -0.562673     2.616488     3.063472
 H     0.076648     3.306917     2.502860
 H     0.081038     1.933144     3.641132
 H    -1.208700     3.187709     3.753162
 C    -2.220811     0.502455     3.827296
 H    -1.955026     1.218146     4.603845
 C    -3.041421    -1.676988     3.192601
 H    -3.422819    -2.657569     3.474359
 C    -2.778715    -0.721489     4.168208
 H    -2.979813    -0.950723     5.217473
 C     0.934805    -0.748609     2.640625
 C     3.257775    -0.116155     2.761749
 C     2.092291    -0.824814     4.759137
 C     3.253329    -0.373807     4.130911
 C     0.932138    -1.012366     4.009238
 H     0.034537    -0.888406     2.040708
 H     0.011495    -1.357236     4.484868
 H     2.092408    -1.027477     5.833413
 H     4.167414    -0.223799     4.711412
 H     4.176077     0.212339     2.274875
 C     3.649598    -1.044465    -1.879398
 O     3.590051     0.227282    -2.326170
 C     3.943769     0.528785    -3.643808
 H     3.727818     1.595482    -3.783567
 H     5.017653     0.353221    -3.833456
 H     3.348726    -0.055141    -4.366768
 C     3.103921    -2.592796    -0.122122
 O     2.506528    -2.793531     1.063909
 C     2.247050    -4.088425     1.518614
 H     1.671914    -3.972826     2.446760
 H     3.176292    -4.641412     1.743182
 H     1.645667    -4.655705     0.788633
 C     3.698216    -3.631774    -0.851975
 H     3.704742    -4.647167    -0.457535
 C     4.244268    -2.073164    -2.616966
 H     4.681118    -1.874467    -3.594976
 C     4.263743    -3.361314    -2.090823
 H     4.722009    -4.171044    -2.663643
 C     2.440755     2.840224     0.049310
 O     1.125229     2.892094     0.295647
 C     0.361118     3.964407    -0.188765
 H    -0.688285     3.668986    -0.076476
 H     0.542162     4.890916     0.385103
 H     0.568719     4.153232    -1.254553
 C     4.468412     1.547678     0.008642
 O     5.068463     0.359471     0.218638
 C     6.367160     0.132375    -0.247397
 H     6.544021    -0.947119    -0.155095
 H     7.122428     0.673718     0.349162
 H     6.469736     0.422610    -1.306769
 C     5.208608     2.698081    -0.280680
 H     6.292848     2.648539    -0.375237
 C     3.175645     3.997918    -0.248798
 H     2.672180     4.961188    -0.320549
 C     4.548818     3.913047    -0.424006
 H     5.121795     4.815662    -0.650213
