  94
scf done:    -4104.134820
 C    -0.532272     0.057185    -3.308058
 H    -1.050083    -0.794677    -3.762746
 H    -1.061930     1.007634    -3.422755
 C     0.875407     0.033273    -3.206542
 H     1.435760    -0.833868    -3.571169
 H     1.443262     0.967155    -3.265140
 H     0.021437     1.225161    -1.304213
Co     0.026457    -0.252109    -1.394578
 C    -1.444621     1.393166     1.184878
 C    -3.090837     0.975333    -1.112733
 C    -2.557852    -1.168015     0.669190
 C     1.653582    -0.995425     1.458474
 C     3.317898    -0.961324    -0.858452
 C     2.467958     1.501749     0.287052
 P     1.815770    -0.149613    -0.169576
 P    -1.701425     0.203509    -0.200857
 C    -0.192670    -1.987758    -1.478778
 O    -0.386030    -3.119313    -1.561636
 C    -1.970496     1.172959     2.463702
 C    -0.656956     2.530707     0.968119
 C    -0.880320     3.170684     3.284459
 C    -0.373207     3.412358     2.007506
 C    -1.687399     2.055474     3.505718
 H    -2.586604     0.292194     2.653236
 H    -2.095573     1.862992     4.501156
 H    -0.648102     3.852370     4.106416
 H     0.262458     4.280522     1.817150
 H    -0.240251     2.710030    -0.023827
 C    -3.691560     2.184074    -0.737095
 H    -3.328691     2.722691     0.140811
 C    -3.589048     0.311723    -2.237602
 H    -3.131885    -0.630323    -2.548862
 C    -4.749813     2.711039    -1.465315
 H    -5.218915     3.655042    -1.181452
 C    -4.658710     0.820714    -2.969260
 H    -5.019492     0.269938    -3.838208
 C    -5.244448     2.034663    -2.587322
 O    -6.273993     2.618072    -3.232604
 C    -6.803676     1.989742    -4.365390
 H    -7.213777     0.991738    -4.129046
 H    -7.617831     2.629586    -4.728942
 H    -6.050789     1.881757    -5.166152
 C    -1.779519    -2.151811     1.300328
 H    -0.690971    -2.110766     1.232336
 C    -3.947105    -1.255843     0.779364
 H    -4.578162    -0.503179     0.301489
 C    -2.368307    -3.175261     2.023241
 H    -1.761916    -3.935857     2.518045
 C    -4.554877    -2.289222     1.493785
 H    -5.643060    -2.326968     1.550533
 C    -3.764475    -3.256335     2.124560
 O    -4.252281    -4.289252     2.839697
 C    -5.638900    -4.425915     2.967732
 H    -6.131415    -4.559820     1.988278
 H    -5.812705    -5.322156     3.576846
 H    -6.093395    -3.556549     3.475451
 C     1.963585    -2.356685     1.575423
 C     1.044450    -0.349209     2.543971
 C     1.054806    -2.405187     3.816047
 C     0.751320    -1.048394     3.711950
 C     1.664248    -3.055612     2.743973
 H     2.439917    -2.878828     0.742549
 H     1.910950    -4.117845     2.814614
 H     0.816214    -2.954562     4.729802
 H     0.268728    -0.525040     4.540796
 H     0.785555     0.708354     2.476703
 C     4.618048    -0.529223    -0.551597
 H     4.764999     0.341254     0.090585
 C     3.180901    -2.065557    -1.702734
 H     2.184842    -2.420188    -1.970391
 C     5.729599    -1.181639    -1.060585
 H     6.741312    -0.843005    -0.829167
 C     4.289188    -2.741364    -2.212496
 H     4.132489    -3.601491    -2.863656
 C     5.577168    -2.298306    -1.894502
 O     6.711602    -2.869621    -2.341787
 C     6.618876    -3.982988    -3.185499
 H     6.087665    -3.744333    -4.123785
 H     7.646830    -4.282218    -3.426370
 H     6.106914    -4.829440    -2.694488
 C     2.334314     2.553860    -0.631958
 H     1.815693     2.369000    -1.575427
 C     3.130505     1.763483     1.488231
 H     3.268734     0.965057     2.220187
 C     2.820864     3.819892    -0.352116
 H     2.712766     4.640921    -1.063323
 C     3.617092     3.035484     1.791228
 H     4.114572     3.199332     2.747339
 C     3.458098     4.076856     0.870961
 O     3.877630     5.340463     1.071408
 C     4.521741     5.655704     2.273871
 H     5.452825     5.076734     2.405424
 H     4.771839     6.723101     2.226881
 H     3.869377     5.479951     3.147601
