  74
scf done:    -3392.596780
 C    -0.255542    -3.544222    -1.233388
 H    -0.261907    -4.378608    -0.523195
 H    -1.173165    -3.476008    -1.827194
 C     0.974580    -3.133873    -1.808316
 H     1.896206    -3.658373    -1.530132
 H     0.986025    -2.747320    -2.832552
 H    -0.401397    -1.215719    -1.613905
Co     0.329592    -1.780441    -0.468436
 C    -2.002215     0.606407    -0.477374
 C    -2.964111    -2.028031     0.171244
 C    -1.471867    -0.334410     2.196421
 C     1.618769     1.032561     0.738466
 C     3.485859    -0.503207    -0.821330
 C     1.263698     1.097496    -2.138986
 P     1.657400    -0.071273    -0.737792
 P    -1.470502    -0.920381     0.416599
 C     1.217173    -2.521436     0.841084
 O     1.866334    -3.061110     1.627252
 C    -2.021898     1.885794     0.087847
 H    -1.763444     2.032962     1.135728
 C    -2.342464     0.489421    -1.835638
 H    -2.320389    -0.492599    -2.313795
 C    -2.346704     3.012465    -0.669395
 H    -2.352300     4.011409    -0.229148
 C    -2.682578     1.596779    -2.602775
 H    -2.944966     1.502861    -3.658036
 C    -2.671630     2.854629    -2.008116
 F    -2.981151     3.923746    -2.738430
 H    -2.783396    -2.360478    -0.864903
 C    -2.865010    -3.262584     1.060832
 H    -3.559060    -4.042291     0.709154
 H    -1.849174    -3.682287     1.053008
 H    -3.137184    -3.029824     2.101800
 C    -4.350437    -1.397279     0.224424
 H    -4.417993    -0.480523    -0.378270
 H    -5.090873    -2.111081    -0.172584
 H    -4.656415    -1.151101     1.249678
 H    -0.804378     0.543658     2.135080
 C    -2.820434     0.108845     2.757669
 H    -2.667754     0.673762     3.691767
 H    -3.392207     0.745788     2.069282
 H    -3.446151    -0.760882     3.006980
 C    -0.799955    -1.315568     3.149852
 H     0.221238    -1.562249     2.841639
 H    -0.742549    -0.866459     4.154382
 H    -1.360953    -2.256789     3.240326
 C     2.078297     0.509631     1.959734
 H     2.508195    -0.493720     1.997823
 C     1.065644     2.318070     0.748695
 H     0.688992     2.766605    -0.170092
 C     1.989130     1.232607     3.143074
 H     2.344701     0.823157     4.090224
 C     0.958805     3.054789     1.929041
 H     0.522674     4.055604     1.937191
 C     1.419627     2.501654     3.114459
 F     1.319312     3.197317     4.245127
 H     3.545444    -1.300542    -0.059522
 C     3.842136    -1.137704    -2.161831
 H     4.835847    -1.609080    -2.101071
 H     3.118431    -1.908063    -2.456471
 H     3.889714    -0.383334    -2.961779
 C     4.484719     0.583581    -0.439718
 H     4.246646     1.057321     0.522516
 H     5.490253     0.140109    -0.353039
 H     4.543297     1.374769    -1.199153
 H     0.303516     1.520346    -1.791994
 C     2.255071     2.234649    -2.366196
 H     1.808938     2.989553    -3.033853
 H     2.555366     2.741935    -1.439118
 H     3.168277     1.869420    -2.858939
 C     0.962879     0.372228    -3.446602
 H     0.244305    -0.443686    -3.290544
 H     0.531375     1.081703    -4.170463
 H     1.870377    -0.053639    -3.898503
