  78
scf done:    -3495.014581
 C     1.053598    -2.177579    -2.480812
 H     1.668053    -1.660140    -3.223955
 H     1.596606    -2.932311    -1.904578
 C    -0.335905    -2.307436    -2.683652
 H    -0.795517    -1.901601    -3.590651
 H    -0.861167    -3.174502    -2.275771
 H     0.026246    -1.983729    -0.280763
Co     0.060181    -0.894282    -1.281035
 C     1.649907     1.436819     0.524772
 O     1.860229    -1.167677     1.283910
 O     3.222010    -0.457133    -0.674250
 C    -2.673801     0.973537    -0.462936
 O    -2.854661    -1.567868     0.032456
 O    -1.174923    -0.208995     1.440549
 P    -1.629103    -0.483169    -0.116921
 P     1.683378    -0.297070    -0.087451
 C    -0.059701     0.443994    -2.404908
 O    -0.150335     1.318529    -3.146030
 C     1.666841     2.508219    -0.381373
 C     1.428938     1.709160     1.878188
 C     1.305315     4.078367     1.418515
 C     1.261111     3.019266     2.322894
 C     1.507533     3.818778     0.062941
 H     1.776848     2.325752    -1.452453
 H     1.527744     4.640017    -0.657406
 H     1.170324     5.105115     1.766750
 H     1.083753     3.212734     3.383836
 H     1.353961     0.878008     2.578387
 C     3.072040    -1.275262     2.036626
 H     3.676371    -0.362463     1.883938
 C     3.854827    -2.483510     1.556298
 H     4.097317    -2.380855     0.491444
 H     3.254643    -3.396057     1.694303
 H     4.790076    -2.592220     2.126600
 C     2.688383    -1.393450     3.498610
 H     2.165742    -0.496024     3.857852
 H     2.021209    -2.256590     3.642559
 H     3.585050    -1.537418     4.119446
 C     4.050950     0.487272    -1.335165
 H     3.914503     1.476547    -0.862902
 C     3.699752     0.578574    -2.808938
 H     2.654554     0.883054    -2.960970
 H     3.837394    -0.400215    -3.292436
 H     4.345784     1.311837    -3.314733
 C     5.482518     0.043362    -1.107839
 H     5.705069    -0.010144    -0.032374
 H     5.647489    -0.953358    -1.545021
 H     6.185391     0.749355    -1.574630
 C    -4.037692     0.889371    -0.753048
 C    -2.045452     2.226054    -0.455681
 C    -4.139375     3.291674    -1.008017
 C    -2.775516     3.379132    -0.723112
 C    -4.766975     2.047441    -1.023800
 H    -4.520106    -0.089364    -0.756443
 H    -5.834184     1.976283    -1.248472
 H    -4.713192     4.196909    -1.221425
 H    -2.276411     4.351055    -0.709643
 H    -0.979118     2.299777    -0.225779
 C    -2.682479    -2.980881    -0.071743
 H    -1.619304    -3.181474    -0.289395
 C    -3.535541    -3.469550    -1.224056
 H    -3.247591    -2.958953    -2.153908
 H    -4.599493    -3.262261    -1.029263
 H    -3.414325    -4.553612    -1.368829
 C    -3.050000    -3.616289     1.253877
 H    -2.395899    -3.248691     2.056845
 H    -4.092436    -3.380890     1.519339
 H    -2.944825    -4.710229     1.199330
 C    -2.074380    -0.121504     2.547977
 H    -3.020394    -0.617685     2.269413
 C    -2.350068     1.327467     2.904591
 H    -2.870131     1.850372     2.091625
 H    -1.405387     1.856194     3.102345
 H    -2.977470     1.382708     3.807362
 C    -1.428739    -0.884467     3.688301
 H    -1.186487    -1.910794     3.378624
 H    -0.488743    -0.397184     3.988857
 H    -2.096053    -0.923956     4.562316
