  66
scf done:    -3187.971017
 C     0.942670    -3.457942     0.586974
 H     0.333407    -4.362875     0.666975
 H     1.769323    -3.520722    -0.125359
 C     1.039491    -2.575328     1.681938
 H     0.516577    -2.817267     2.612650
 H     1.972395    -2.022374     1.828764
 H    -1.254449    -2.585201     0.932978
Co    -0.203578    -1.831781     0.244214
 C     1.882324     0.965954    -0.019800
 O     2.665650    -1.509291    -1.003414
 O     0.967947    -0.022379    -2.248350
 C    -1.836491     1.121790    -0.190594
 O    -2.789321    -0.446925     1.654116
 O    -0.607436     0.847930     2.104893
 P    -1.301632    -0.175647     0.995545
 P     1.300209    -0.626802    -0.746955
 C    -1.064778    -2.536472    -1.082305
 O    -1.681651    -3.099966    -1.875585
 H     0.947494     1.411206     0.363099
 C     2.513973     1.986718    -0.968648
 H     1.853145     2.158214    -1.829688
 H     3.461283     1.595596    -1.374745
 C     2.793879     3.291209    -0.227912
 H     3.265471     4.017475    -0.909793
 H     1.833861     3.738666     0.087877
 C     3.670099     3.064364     0.999049
 H     3.835763     4.012629     1.535537
 H     4.666576     2.714645     0.672207
 C     3.057174     2.026523     1.932261
 H     2.110633     2.422907     2.341860
 H     3.719720     1.840548     2.793222
 C     2.762681     0.717768     1.206981
 H     3.709211     0.241564     0.896296
 H     2.268025     0.009224     1.885833
 C     3.765373    -1.083161    -1.773349
 H     3.446325    -0.490592    -2.645592
 H     4.466607    -0.481589    -1.171797
 H     4.291654    -1.981649    -2.126304
 C     0.410216    -0.832676    -3.259466
 H     0.785107    -1.867655    -3.213479
 H    -0.687903    -0.854194    -3.193234
 H     0.697607    -0.394988    -4.226327
 H    -0.910525     1.389869    -0.733089
 C    -2.408660     2.380112     0.461372
 H    -1.685838     2.793928     1.178512
 H    -3.301875     2.096234     1.043543
 C    -2.780857     3.417069    -0.593655
 H    -3.219290     4.305165    -0.109732
 H    -1.860279     3.762661    -1.099318
 C    -3.739799     2.849419    -1.633916
 H    -3.961247     3.603071    -2.407186
 H    -4.702144     2.611416    -1.145601
 C    -3.179531     1.581904    -2.269186
 H    -2.275661     1.834186    -2.853738
 H    -3.902962     1.155156    -2.982788
 C    -2.814720     0.542751    -1.215068
 H    -3.722860     0.209868    -0.684540
 H    -2.387540    -0.352323    -1.690816
 C    -3.094768    -1.499399     2.530545
 H    -2.909051    -1.210231     3.578929
 H    -4.162051    -1.737782     2.415937
 H    -2.503430    -2.402640     2.299270
 C    -0.147314     0.344736     3.335275
 H    -0.958860     0.335953     4.082681
 H     0.254079    -0.675446     3.227550
 H     0.652364     1.005191     3.700536
