 110
scf done:    -3515.728592
 C    -0.721395    -1.354205    -2.727931
 H    -1.430238    -2.189312    -2.705974
 H    -1.032921    -0.530915    -3.379353
 C     0.657886    -1.604121    -2.543731
 H     1.004222    -2.631066    -2.383477
 H     1.388617    -0.977648    -3.066565
 H     0.160100     0.583183    -1.558457
Co    -0.126006    -0.721734    -0.907592
 C    -1.851876     2.213129    -0.574073
 C    -3.412913    -0.068306    -1.364879
 C    -2.634915     0.248989     1.371839
 C     1.456852     1.268327     1.346817
 C     2.748283    -1.291211     0.880172
 C     2.856576     0.768729    -1.157334
 P     1.687451    -0.036731     0.034246
 P    -1.928660     0.357856    -0.344921
 C    -0.332009    -2.211867    -0.023334
 O    -0.392003    -3.216497     0.540684
 H    -0.916992     2.486800    -0.050242
 C    -2.986354     3.029055     0.048440
 H    -3.096112     2.800794     1.118733
 H    -3.944712     2.757583    -0.429946
 C    -2.746772     4.528072    -0.123772
 H    -3.588341     5.094741     0.307190
 H    -1.851279     4.813856     0.458108
 C    -2.536734     4.910321    -1.583512
 H    -2.321741     5.987713    -1.671999
 H    -3.473909     4.733749    -2.142196
 C    -1.420545     4.085186    -2.212388
 H    -0.458400     4.344170    -1.733710
 H    -1.311662     4.333053    -3.280757
 C    -1.673909     2.591098    -2.046053
 H    -2.588042     2.320067    -2.603690
 H    -0.850071     2.004077    -2.481361
 H    -3.102212     0.068986    -2.412559
 H    -4.208518     0.667519    -1.161899
 C    -3.920561    -1.490795    -1.169834
 H    -3.056361    -2.171527    -1.094749
 H    -4.460208    -1.568826    -0.209184
 C    -4.839083    -1.992798    -2.286097
 H    -4.267599    -1.925708    -3.231310
 C    -5.196360    -3.456629    -2.058225
 H    -4.293682    -4.082688    -1.982628
 H    -5.815280    -3.853279    -2.877993
 H    -5.766066    -3.580064    -1.121747
 C    -6.093052    -1.138564    -2.432943
 H    -6.744675    -1.522416    -3.233245
 H    -5.854254    -0.092033    -2.675312
 H    -6.678636    -1.140899    -1.497648
 H    -3.681830     0.595387     1.327745
 H    -2.091424     0.988013     1.982374
 C    -2.569221    -1.123580     2.027148
 H    -2.922632    -1.894611     1.326897
 H    -1.519560    -1.387712     2.237501
 C    -3.374303    -1.243145     3.323508
 H    -4.421401    -0.969902     3.090025
 C    -3.365234    -2.685724     3.815761
 H    -3.762855    -3.373264     3.053258
 H    -3.969678    -2.804828     4.728437
 H    -2.338069    -3.011725     4.049331
 C    -2.875033    -0.296219     4.408872
 H    -3.473061    -0.394595     5.328062
 H    -2.920724     0.757988     4.096614
 H    -1.827129    -0.522996     4.668308
 H     0.735646     1.949283     0.858020
 C     2.660633     2.110147     1.767584
 H     3.133279     2.580336     0.892429
 H     3.424828     1.461961     2.233143
 C     2.245920     3.196042     2.760016
 H     3.129327     3.774108     3.076936
 H     1.577601     3.910119     2.244860
 C     1.522027     2.621388     3.971780
 H     1.196644     3.431301     4.644602
 H     2.226293     1.999056     4.553339
 C     0.334654     1.763128     3.551329
 H    -0.427769     2.403985     3.070477
 H    -0.150229     1.314027     4.432627
 C     0.765048     0.676527     2.573703
 H     1.461219    -0.008710     3.089097
 H    -0.090547     0.066097     2.251179
 H     2.168981    -1.667463     1.739213
 H     3.641150    -0.792410     1.289402
 C     3.125536    -2.461774    -0.019030
 H     2.204267    -2.982440    -0.318934
 H     3.575624    -2.097566    -0.960113
 C     4.080101    -3.472328     0.621927
 H     3.643509    -3.767622     1.594873
 C     4.181971    -4.722697    -0.243967
 H     3.194865    -5.185404    -0.397393
 H     4.843057    -5.476725     0.210994
 H     4.592444    -4.476776    -1.237842
 C     5.461986    -2.882622     0.884360
 H     6.125253    -3.619691     1.363099
 H     5.422653    -2.000782     1.541629
 H     5.938844    -2.572845    -0.061215
 H     2.475966     1.798991    -1.277324
 H     2.659084     0.276596    -2.119188
 C     4.349717     0.769639    -0.859623
 H     4.542321     1.133472     0.160943
 H     4.732918    -0.264849    -0.882123
 C     5.181715     1.611138    -1.832493
 H     4.791787     2.646482    -1.792104
 C     6.639120     1.641823    -1.386532
 H     6.738940     2.027565    -0.359772
 H     7.250097     2.277048    -2.046486
 H     7.074279     0.628456    -1.404287
 C     5.064161     1.122342    -3.272025
 H     5.688232     1.727154    -3.947988
 H     4.030704     1.171427    -3.645538
 H     5.400893     0.075098    -3.356378
