  90
scf done:    -3803.480245
 C    -0.534423     0.413731    -3.330386
 H    -1.009016    -0.401501    -3.887385
 H    -1.107233     1.345745    -3.339498
 C     0.871141     0.441657    -3.209593
 H     1.476365    -0.351540    -3.660679
 H     1.394685     1.400903    -3.148134
 H    -0.061471     1.359333    -1.190532
Co     0.017078    -0.095365    -1.456755
 C    -1.560233     1.146499     1.281938
 C    -3.147256     0.952499    -1.093870
 C    -2.552317    -1.371791     0.428643
 C     1.649650    -1.116838     1.306681
 C     3.333460    -0.715594    -0.964611
 C     2.363028     1.543301     0.465405
 P     1.784708    -0.067754    -0.200386
 P    -1.741445     0.133320    -0.247696
 C    -0.121324    -1.816096    -1.755960
 O    -0.262316    -2.935806    -1.980096
 C    -2.104847     0.750075     2.509552
 C    -0.808433     2.326900     1.229207
 C    -1.101559     2.661982     3.601350
 C    -0.576784     3.078545     2.377905
 C    -1.874126     1.502760     3.660495
 H    -2.694400    -0.166180     2.573028
 H    -2.296005     1.173298     4.613353
 H    -0.909083     3.240759     4.508036
 H     0.035091     3.981570     2.314460
 H    -0.375816     2.641638     0.278704
 C    -3.619958     0.382586    -2.284454
 H    -3.142554    -0.519729    -2.673845
 C    -3.768946     2.106907    -0.615187
 H    -3.426940     2.565245     0.315118
 C    -4.688596     0.948829    -2.966313
 H    -5.045240     0.481635    -3.888826
 C    -4.832843     2.679487    -1.313500
 H    -5.304004     3.585407    -0.921676
 C    -5.312195     2.114609    -2.497478
 C    -6.444188     2.737578    -3.260400
 H    -6.951945     3.512379    -2.668952
 H    -6.081650     3.210361    -4.188113
 H    -7.192508     1.985381    -3.553792
 C    -3.940772    -1.526772     0.502821
 H    -4.597715    -0.745382     0.114454
 C    -1.738914    -2.387671     0.945488
 H    -0.652556    -2.289429     0.905189
 C    -4.495422    -2.669290     1.075630
 H    -5.583540    -2.771168     1.121289
 C    -2.299081    -3.519190     1.526799
 H    -1.638080    -4.290862     1.931053
 C    -3.687634    -3.685515     1.597557
 C    -4.286174    -4.929117     2.186109
 H    -4.318026    -5.739906     1.439027
 H    -3.694555    -5.296769     3.037569
 H    -5.316599    -4.759030     2.529783
 C     2.028635    -2.464844     1.265118
 C     0.994059    -0.637312     2.450100
 C     1.095545    -2.828232     3.466648
 C     0.723337    -1.485674     3.520405
 C     1.751133    -3.313423     2.335971
 H     2.542996    -2.859221     0.385963
 H     2.052881    -4.362423     2.283736
 H     0.875974    -3.494576     4.304234
 H     0.205075    -1.090361     4.397230
 H     0.681577     0.406350     2.505364
 C     3.254894    -1.741904    -1.913682
 H     2.280924    -2.132735    -2.210943
 C     4.601278    -0.233515    -0.619638
 H     4.699035     0.573873     0.108422
 C     4.405883    -2.282812    -2.479144
 H     4.313354    -3.091365    -3.209723
 C     5.748402    -0.768396    -1.199015
 H     6.726432    -0.371405    -0.912177
 C     5.675173    -1.802864    -2.138163
 C     6.911870    -2.354282    -2.784123
 H     7.786664    -2.264184    -2.123975
 H     6.789204    -3.413895    -3.051559
 H     7.145369    -1.808019    -3.713484
 C     3.000598     1.682250     1.702680
 H     3.162449     0.807716     2.336079
 C     2.201769     2.685457    -0.327332
 H     1.704106     2.591898    -1.295275
 C     3.429955     2.931719     2.145218
 H     3.915820     3.015459     3.121433
 C     2.642606     3.928322     0.112703
 H     2.503343     4.804279    -0.527299
 C     3.253612     4.078484     1.364545
 C     3.682046     5.429726     1.856140
 H     4.108304     6.036939     1.043834
 H     2.823975     5.990708     2.263107
 H     4.431528     5.349996     2.656240
