  98
scf done:    -3508.484710
 C    -0.293353     3.110289     0.610332
 H     0.246058     3.586466     1.437030
 H    -0.005076     3.493929    -0.374162
 C    -1.619449     2.656029     0.823075
 H    -2.073799     2.781417     1.812317
 H    -2.339816     2.694106    -0.000158
 H    -0.573060     1.207277    -0.781071
Co    -0.346478     1.105183     0.678343
 C     1.190361    -0.720366    -1.634213
 C     2.500096     1.749350    -1.002699
 C     2.699874    -0.483173     0.803828
 C    -0.953021    -2.243561     0.980939
 C    -3.139337    -0.672612     1.678391
 C    -2.412186    -0.974286    -1.120233
 P    -1.680663    -0.602229     0.534267
 P     1.471038     0.427555    -0.227723
 C     0.123070     1.029878     2.359429
 O     0.487811     1.014162     3.453160
 C     1.289738    -2.108944    -1.491793
 C     0.752238    -0.204330    -2.862847
 C     0.526355    -2.434604    -3.763406
 C     0.428628    -1.050753    -3.919089
 C     0.957378    -2.958510    -2.547291
 H     1.606783    -2.546426    -0.543254
 H     1.031197    -4.039811    -2.408487
 H     0.265577    -3.100775    -4.589159
 H     0.090613    -0.627682    -4.868306
 H     0.643136     0.875271    -2.991049
 H     3.255689     1.294763    -1.664834
 H     1.815589     2.331553    -1.639849
 C     3.142470     2.666825     0.028576
 H     2.384394     2.952035     0.776507
 H     3.925068     2.118549     0.581368
 C     3.749828     3.921630    -0.581937
 H     2.961757     4.478547    -1.120841
 H     4.494289     3.637862    -1.348414
 C     4.401748     4.838064     0.443804
 H     3.653270     5.108781     1.209322
 H     5.187752     4.278181     0.981306
 C     4.995081     6.099400    -0.162333
 H     5.457787     6.740388     0.603356
 H     4.223523     6.697056    -0.674009
 H     5.770553     5.858546    -0.907456
 H     2.869624     0.154372     1.688023
 H     2.169261    -1.368015     1.192539
 C     4.018642    -0.882077     0.158698
 H     3.829128    -1.402201    -0.795677
 H     4.596068     0.021195    -0.102547
 C     4.864367    -1.774563     1.057305
 H     4.287662    -2.683397     1.310224
 H     5.045374    -1.260694     2.019097
 C     6.195768    -2.176632     0.438827
 H     6.007278    -2.682322    -0.524842
 H     6.767856    -1.265390     0.189132
 C     7.031513    -3.076126     1.334984
 H     7.986469    -3.349636     0.861182
 H     6.497834    -4.010885     1.571364
 H     7.264540    -2.581482     2.291733
 C    -1.176564    -3.416031     0.247970
 C    -0.136108    -2.319669     2.117341
 C     0.244753    -4.676225     1.744926
 C     0.455258    -3.522255     2.499105
 C    -0.578950    -4.618829     0.622566
 H    -1.806930    -3.399869    -0.641716
 H    -0.757759    -5.518057     0.027487
 H     0.716460    -5.618110     2.035065
 H     1.090066    -3.554018     3.388045
 H     0.049691    -1.424215     2.713195
 H    -3.548057    -1.697368     1.645233
 H    -2.717155    -0.533562     2.688445
 C    -4.235515     0.350072     1.423604
 H    -3.789782     1.351405     1.324311
 H    -4.725593     0.135091     0.458543
 C    -5.291647     0.370246     2.520139
 H    -4.806695     0.599873     3.486454
 H    -5.724296    -0.640492     2.636089
 C    -6.407908     1.373341     2.264709
 H    -5.966382     2.378020     2.140884
 H    -6.889712     1.139552     1.298568
 C    -7.456336     1.405628     3.364859
 H    -8.248364     2.139403     3.151376
 H    -7.008159     1.673173     4.335349
 H    -7.938190     0.422030     3.486902
 H    -1.609321    -1.468059    -1.693105
 H    -3.220411    -1.714765    -0.989587
 C    -2.906758     0.223179    -1.917053
 H    -3.723797     0.737325    -1.384461
 H    -2.087328     0.957843    -1.985977
 C    -3.369526    -0.162502    -3.314345
 H    -4.207713    -0.880423    -3.246066
 H    -2.552592    -0.704449    -3.824783
 C    -3.791826     1.029063    -4.161884
 H    -4.603655     1.572168    -3.646326
 H    -2.950414     1.742127    -4.221533
 C    -4.239871     0.646219    -5.563004
 H    -4.535420     1.527424    -6.152485
 H    -5.102670    -0.038766    -5.533634
 H    -3.434263     0.133020    -6.113023
