  70
scf done:    -3265.997489
 C     4.156870    -0.426814     0.077814
 H     4.741588     0.024409     0.887516
 H     4.240468    -1.517869     0.036141
 C     3.963021     0.305517    -1.120192
 H     4.394590     1.309173    -1.203673
 H     3.899033    -0.226285    -2.074555
 H     2.018718    -1.081714    -0.737462
Co     2.259249     0.213494    -0.053637
 C    -0.318560    -1.794970     0.592992
 C     2.058567    -2.404641     2.064612
 C     0.429601    -0.164457     2.841785
 C    -0.812070     1.539238    -0.737900
 C     1.169821     2.477309    -2.441877
 C     0.170187    -0.239870    -2.740490
 P     0.779280     0.948216    -1.460971
 P     1.140916    -0.972876     1.337341
 C     2.518039     1.633832     0.926803
 O     2.696397     2.536260     1.622904
 C    -0.138718    -2.921672    -0.228232
 H     0.861202    -3.339399    -0.368469
 C    -1.609785    -1.279210     0.710922
 H    -1.796942    -0.387525     1.312609
 C    -1.203187    -3.508419    -0.892702
 H    -1.062835    -4.382248    -1.531730
 C    -2.693164    -1.855858     0.045497
 H    -3.679464    -1.406188     0.159219
 C    -2.495630    -2.977159    -0.763959
 O    -3.471143    -3.602852    -1.452405
 C    -4.774770    -3.099827    -1.375158
 H    -4.837219    -2.061386    -1.746941
 H    -5.399227    -3.741934    -2.009184
 H    -5.166527    -3.128183    -0.342929
 H     2.516833    -2.929665     1.212375
 C     3.133513    -1.979587     3.052822
 H     2.700698    -1.548637     3.968402
 H     3.797828    -1.224317     2.609542
 H     1.337425    -3.099680     2.524746
 H     3.750143    -2.839678     3.355131
 H    -0.239119     0.627139     2.467409
 C    -0.278617    -1.052496     3.851943
 H     0.409108    -1.778332     4.310815
 H    -1.097897    -1.622756     3.389348
 H     1.274045     0.372801     3.304401
 H    -0.708982    -0.450514     4.667771
 C    -2.072219     1.284505    -1.300954
 H    -2.160182     0.699625    -2.217427
 C    -0.773616     2.296964     0.435669
 H     0.187106     2.528512     0.899741
 C    -3.237314     1.740070    -0.701567
 H    -4.217345     1.530103    -1.134970
 C    -1.933773     2.769967     1.049147
 H    -1.849290     3.356300     1.964494
 C    -3.182169     2.481826     0.485783
 O    -4.362509     2.872552     1.004460
 C    -4.363935     3.620264     2.188444
 H    -3.829908     4.579439     2.069738
 H    -5.414315     3.827099     2.429312
 H    -3.908796     3.063244     3.026601
 H     1.400216     3.242160    -1.681508
 C     2.303101     2.371772    -3.447818
 H     2.051342     1.691851    -4.275170
 H     3.224946     2.004841    -2.978098
 H     0.235381     2.796992    -2.933767
 H     2.516282     3.357001    -3.890745
 H    -0.418228     0.322417    -3.485200
 C     1.237562    -1.080626    -3.421460
 H     1.819690    -1.639269    -2.673990
 H     1.944644    -0.473056    -4.003874
 H    -0.528288    -0.905535    -2.206793
 H     0.772094    -1.804977    -4.107392
