 102
scf done:    -3884.952683
 C     0.693779    -3.535680     1.968548
 H     1.068834    -4.455268     1.506741
 H     1.362529    -3.128124     2.733102
 C    -0.703796    -3.329739     2.070839
 H    -1.387583    -4.099620     1.694049
 H    -1.102706    -2.768252     2.923496
 H     0.198961    -1.097040     1.644371
Co     0.087294    -2.163661     0.628999
 O     2.785389    -0.501019     1.390429
 C     3.306525    -2.350582    -0.351519
 C     1.859938     0.020842    -1.202513
 O    -1.374232     0.177748    -0.910581
 C    -3.050359    -2.078997    -0.471011
 C    -2.413722    -0.152023     1.652268
 P    -1.643580    -1.028756     0.192661
 P     1.931045    -1.233349     0.181685
 C     0.036099    -3.207264    -0.769395
 O     0.023848    -3.852127    -1.724586
 C     2.245405     0.364437     2.388339
 H     1.295141     0.790121     2.019774
 C     3.243242     1.484838     2.598188
 H     3.430082     2.021907     1.660305
 H     4.198221     1.075986     2.964234
 H     2.865620     2.200116     3.344101
 C     1.979826    -0.417418     3.660676
 H     1.220539    -1.192142     3.490350
 H     2.905858    -0.902985     4.005515
 H     1.621760     0.252658     4.457079
 H     3.483456    -2.999580     0.520271
 H     2.884955    -2.985055    -1.146587
 C     4.554971    -1.661006    -0.808345
 C     4.862730    -1.574859    -2.172902
 H     4.218929    -2.071708    -2.904267
 C     5.406618    -1.034806     0.108141
 H     5.161200    -1.087735     1.170213
 C     5.983604    -0.867455    -2.600561
 H     6.216438    -0.809813    -3.666607
 C     6.527033    -0.308030    -0.304416
 C     7.374119     0.407637     0.707333
 H     6.834731     1.278280     1.116155
 H     7.623971    -0.245470     1.557182
 H     8.313093     0.772103     0.267260
 C     6.808178    -0.232561    -1.673613
 H     7.683702     0.326583    -2.015188
 H     2.486566    -0.371921    -2.017219
 H     0.809803     0.007920    -1.521577
 C     2.274381     1.415628    -0.854430
 C     1.341257     2.313468    -0.324150
 H     0.309500     1.986342    -0.177878
 C     3.592374     1.845722    -1.044956
 H     4.326230     1.146368    -1.452655
 C     1.727693     3.611880     0.003649
 H     0.989984     4.307527     0.412606
 C     3.994654     3.144112    -0.721215
 C     5.415867     3.581213    -0.933339
 H     6.036023     2.750168    -1.297402
 H     5.477860     4.399196    -1.669172
 H     5.862320     3.955165     0.001827
 C     3.042602     4.026650    -0.192437
 H     3.337832     5.047162     0.067967
 C    -2.274639     0.776000    -1.846696
 H    -3.304316     0.665672    -1.473979
 C    -2.126476     0.079335    -3.188109
 H    -2.324049    -0.999515    -3.115844
 H    -1.100876     0.206524    -3.567121
 H    -2.821548     0.506448    -3.927171
 C    -1.953840     2.252227    -1.942262
 H    -2.067722     2.741073    -0.966774
 H    -0.921703     2.403154    -2.293020
 H    -2.636232     2.739544    -2.655200
 H    -2.764941    -2.333762    -1.503027
 H    -2.909475    -3.000316     0.114675
 C    -4.477912    -1.633678    -0.375591
 C    -5.204496    -1.851111     0.803016
 H    -4.743510    -2.400015     1.628760
 C    -5.128010    -0.994508    -1.438842
 H    -4.599862    -0.867692    -2.386815
 C    -6.511643    -1.386344     0.927572
 H    -7.062870    -1.560327     1.854720
 C    -6.435207    -0.511842    -1.330873
 C    -7.075692     0.226143    -2.470355
 H    -6.961307     1.315717    -2.341595
 H    -6.616831    -0.040583    -3.433080
 H    -8.153637     0.017573    -2.533443
 C    -7.119364    -0.706301    -0.124389
 H    -8.144038    -0.339881    -0.018269
 H    -3.287889    -0.739128     1.966822
 H    -1.657722    -0.238965     2.443298
 C    -2.789134     1.283152     1.448379
 C    -1.882437     2.300991     1.764380
 H    -0.901045     2.042650     2.170550
 C    -4.044197     1.638821     0.941361
 H    -4.766094     0.853070     0.705953
 C    -2.229756     3.637050     1.574570
 H    -1.518095     4.424526     1.835289
 C    -4.402423     2.972580     0.728262
 C    -5.738050     3.314445     0.133463
 H    -6.454582     2.490529     0.262687
 H    -6.165314     4.221530     0.586080
 H    -5.645647     3.505077    -0.949364
 C    -3.478327     3.972770     1.056385
 H    -3.741965     5.023409     0.906827
