 114
scf done:    -3668.045557
 C    -1.082193     0.526498    -3.139563
 H    -1.577565    -0.268606    -3.707052
 H    -1.724444     1.394997    -2.979603
 C     0.311398     0.694926    -3.297045
 H     0.840879     0.022967    -3.980156
 H     0.752333     1.694720    -3.242449
 H    -0.064164     1.324435    -1.080938
Co    -0.096938    -0.089639    -1.474685
 C    -2.325443     1.787138     0.311283
 C    -3.476760    -0.623180    -0.973834
 C    -1.979164    -0.796339     1.515322
 C     2.094148    -1.450788     0.933335
 C     3.456358    -0.021065    -1.140435
 C     1.678505     1.512512     0.816625
 P     1.782443    -0.021277    -0.268054
 P    -1.891059     0.017337    -0.171576
 C    -0.016363    -1.737016    -2.071103
 O     0.055746    -2.758827    -2.599406
 H    -1.423507     2.073902     0.884470
 C    -3.537446     2.000281     1.221699
 H    -3.527480     1.312475     2.080325
 H    -4.458135     1.784289     0.654493
 C    -3.612514     3.442646     1.715572
 H    -4.481273     3.567170     2.382544
 H    -2.717297     3.665826     2.324933
 C    -3.689064     4.416855     0.547899
 H    -3.710737     5.458025     0.908963
 H    -4.639778     4.255087     0.007863
 C    -2.523879     4.206689    -0.409275
 H    -1.586011     4.499490     0.095294
 H    -2.618303     4.867369    -1.286319
 C    -2.399309     2.756302    -0.869141
 H    -3.264967     2.498972    -1.506510
 H    -1.497732     2.642834    -1.486143
 H    -3.770135     0.230340    -1.614632
 C    -4.654761    -0.945164    -0.045997
 H    -4.855310    -0.131097     0.661285
 H    -4.400744    -1.829907     0.563671
 C    -5.920328    -1.254896    -0.842835
 H    -6.750835    -1.478091    -0.152941
 H    -6.219901    -0.353845    -1.408590
 C    -5.703454    -2.411214    -1.809848
 H    -6.609404    -2.588497    -2.412161
 H    -5.528883    -3.336245    -1.230632
 C    -4.501413    -2.150882    -2.708065
 H    -4.726231    -1.304060    -3.382145
 H    -4.308015    -3.019739    -3.357940
 C    -3.249263    -1.818258    -1.903652
 H    -2.951770    -2.699391    -1.308600
 H    -2.414714    -1.612756    -2.579933
 H    -3.028868    -0.713112     1.842965
 C    -1.122777    -0.117350     2.584458
 H    -1.401467     0.941136     2.697925
 H    -0.068777    -0.122632     2.268034
 C    -1.245016    -0.821160     3.932603
 H    -0.597020    -0.325413     4.674151
 H    -2.280506    -0.711869     4.303412
 C    -0.903009    -2.302005     3.829070
 H    -1.035201    -2.797788     4.804378
 H     0.166128    -2.408915     3.571706
 C    -1.746811    -2.988619     2.762162
 H    -2.803654    -2.994436     3.085560
 H    -1.450559    -4.045274     2.656565
 C    -1.640116    -2.282459     1.414429
 H    -0.619326    -2.379536     1.015688
 H    -2.295393    -2.776140     0.680675
 H     1.313785    -1.318372     1.702370
 C     3.448934    -1.517256     1.650005
 H     3.690704    -0.573330     2.151487
 H     4.244555    -1.691053     0.905848
 C     3.490992    -2.657020     2.665297
 H     4.465737    -2.660082     3.179995
 H     2.728758    -2.478803     3.446105
 C     3.232091    -4.000340     1.999314
 H     3.228453    -4.812853     2.744000
 H     4.059777    -4.220729     1.300970
 C     1.919169    -3.971595     1.230981
 H     1.082929    -3.891690     1.948415
 H     1.765434    -4.916498     0.685192
 C     1.839985    -2.800796     0.255421
 H     2.575107    -2.947648    -0.556866
 H     0.856909    -2.806861    -0.227012
 H     3.700104    -1.101120    -1.131867
 C     4.612566     0.708647    -0.446556
 H     4.682765     0.443756     0.614674
 H     4.431051     1.794196    -0.483653
 C     5.941804     0.420549    -1.139960
 H     6.756487     0.954740    -0.623837
 H     6.171837    -0.657231    -1.050865
 C     5.894366     0.808596    -2.612027
 H     6.846234     0.561318    -3.109808
 H     5.777337     1.904831    -2.691083
 C     4.727631     0.127556    -3.315230
 H     4.910601    -0.962408    -3.343731
 H     4.663103     0.455924    -4.365403
 C     3.399059     0.383817    -2.610494
 H     3.131725     1.451899    -2.690059
 H     2.594917    -0.169530    -3.106419
 H     0.601194     1.478436     1.049241
 C     1.879658     2.800642     0.011403
 H     1.322731     2.731974    -0.935818
 H     2.942600     2.922496    -0.250214
 C     1.426061     4.019824     0.806708
 H     1.597194     4.938140     0.221811
 H     0.335425     3.955155     0.970000
 C     2.129139     4.101779     2.155569
 H     1.762515     4.966477     2.732482
 H     3.209032     4.272272     1.992878
 C     1.940544     2.814592     2.947737
 H     0.870196     2.696112     3.198431
 H     2.479272     2.867561     3.907924
 C     2.400003     1.587640     2.161390
 H     3.491454     1.640009     2.014765
 H     2.199470     0.685700     2.758760
