  90
scf done:    -6013.911091
 C     0.784762     3.601018    -1.018642
 H     0.015450     4.112249    -1.605587
 H     0.923508     4.000992    -0.009112
 C     1.857575     2.969458    -1.677327
 H     1.917965     2.999899    -2.769817
 H     2.825135     2.876040    -1.178824
 H     1.348405     1.613694     0.231290
Co     0.536542     1.585792    -0.998413
 C    -0.727098     2.096710     2.101601
 O    -2.409420     2.407146     0.132590
 O    -1.610412    -0.005686     0.622712
 C     0.771088    -1.735030    -1.761125
 O     3.022981    -0.486325    -1.399216
 O     1.531729    -0.832171     0.666463
 P     1.435938    -0.278622    -0.925524
 P    -1.004949     1.542033     0.404160
 C    -0.284290     1.434036    -2.560200
 O    -0.748044     1.329769    -3.601466
 C    -1.252458     3.293795     2.606944
 H    -1.904632     3.904517     1.979713
 C     0.108548     1.323164     2.911816
 H     0.544338     0.401421     2.516151
 C    -0.959526     3.696115     3.900647
 H    -1.360318     4.624136     4.312374
 C     0.400471     1.715488     4.214878
 H     1.046516     1.086567     4.827422
 C    -0.134876     2.909012     4.718183
 O     0.088379     3.374826     5.958596
 C     0.901811     2.634551     6.827397
 H     1.927539     2.524551     6.434138
 H     0.941713     3.192515     7.771151
 H     0.485402     1.630982     7.022890
 C    -2.956412     2.428286    -1.121848
 C    -3.579091     1.293498    -1.644255
 H    -3.646374     0.386751    -1.041017
 C    -2.890243     3.601947    -1.870938
 H    -2.403799     4.478700    -1.440460
 C    -4.118160     1.327961    -2.926342
 H    -4.601460     0.446395    -3.349798
 C    -3.430793     3.640662    -3.151776
 H    -3.378607     4.550287    -3.751825
 C    -4.035235     2.499118    -3.677335
Cl    -4.693691     2.539101    -5.277912
 C    -2.675049    -0.459528     1.342204
 C    -3.008653    -1.804347     1.146281
 H    -2.422907    -2.394603     0.438283
 C    -3.434065     0.323640     2.215160
 H    -3.200021     1.376285     2.360245
 C    -4.075460    -2.373024     1.832088
 H    -4.336857    -3.421728     1.682209
 C    -4.502983    -0.247344     2.901590
 H    -5.098576     0.357823     3.586845
 C    -4.819354    -1.590706     2.714722
Cl    -6.150312    -2.292188     3.574906
 C    -0.622262    -1.822417    -1.904431
 H    -1.249183    -0.987943    -1.584387
 C     1.559342    -2.815167    -2.167774
 H     2.644359    -2.754635    -2.072709
 C    -1.210307    -2.965858    -2.418138
 H    -2.292628    -3.047151    -2.534336
 C     0.979341    -3.968650    -2.686803
 H     1.620698    -4.796008    -2.990246
 C    -0.414462    -4.054854    -2.805588
 O    -1.067905    -5.127826    -3.278606
 C    -0.332934    -6.258100    -3.664322
 H     0.246389    -6.674991    -2.822238
 H    -1.061978    -7.005943    -4.000039
 H     0.356710    -6.033254    -4.496356
 C     4.017550     0.393365    -1.087532
 C     4.877189     0.787461    -2.113156
 H     4.707700     0.398773    -3.118646
 C     4.203177     0.878759     0.209659
 H     3.527460     0.569001     1.007639
 C     5.917600     1.671644    -1.851494
 H     6.592178     1.989505    -2.647944
 C     5.238411     1.772379     0.470774
 H     5.386997     2.166840     1.477125
 C     6.091020     2.166330    -0.558687
Cl     7.379671     3.277361    -0.230105
 C     1.748754    -2.146146     0.977321
 C     3.031878    -2.692124     0.931137
 H     3.875267    -2.066115     0.635885
 C     0.662147    -2.932280     1.359691
 H    -0.328066    -2.477028     1.394561
 C     3.223869    -4.034206     1.248636
 H     4.220534    -4.476888     1.212974
 C     0.849813    -4.272526     1.677751
 H     0.006222    -4.898543     1.972618
 C     2.131201    -4.819620     1.612405
Cl     2.368094    -6.494706     1.991923
