 104
scf done:    -3587.056115
 C    -0.669894     3.055279    -1.449360
 H    -0.091680     3.937444    -1.151517
 H    -0.519064     2.772167    -2.496495
 C    -1.923409     2.810356    -0.831286
 H    -2.284681     3.503270    -0.062855
 H    -2.725120     2.340692    -1.410042
 H    -0.959589     0.714310    -1.370418
Co    -0.542464     1.497545    -0.193255
 C     0.998835    -1.178111    -1.481919
 C     2.341595     1.292357    -1.971936
 C     2.450935     0.099799     0.655679
 C    -0.618254    -0.891101     2.157627
 C    -3.049947     0.491618     1.988785
 C    -2.320853    -1.436195    -0.069709
 P    -1.643461    -0.018438     0.895769
 P     1.273200     0.467444    -0.712815
 C     0.070168     2.446816     1.141891
 O     0.510393     3.089796     1.991748
 C     1.283589    -2.386477    -0.840847
 H     1.759096    -2.392285     0.140642
 C     0.374200    -1.234370    -2.737535
 H     0.114158    -0.306797    -3.254203
 C     0.937931    -3.606564    -1.425476
 H     1.161144    -4.535755    -0.893286
 C     0.047590    -2.449812    -3.323320
 H    -0.441841    -2.459658    -4.301707
 C     0.311979    -3.663948    -2.672187
 C    -0.090687    -4.968436    -3.293810
 H    -1.188583    -5.054451    -3.352046
 H     0.293770    -5.058626    -4.321607
 H     0.281271    -5.825027    -2.714654
 H     3.142900     0.600989    -2.282398
 H     1.702186     1.463596    -2.853027
 C     2.907610     2.616358    -1.480240
 H     2.084063     3.227072    -1.075361
 H     3.597493     2.439016    -0.636473
 C     3.636243     3.396818    -2.564799
 H     2.942160     3.583093    -3.404556
 H     4.451702     2.777731    -2.981940
 C     4.204828     4.722187    -2.077652
 H     3.385365     5.331413    -1.657210
 H     4.895074     4.532035    -1.236506
 C     4.923728     5.507395    -3.162613
 H     5.322710     6.459133    -2.780121
 H     4.246681     5.743296    -3.999464
 H     5.769301     4.934770    -3.577018
 H     2.554517     1.042985     1.217262
 H     1.902030    -0.566522     1.340715
 C     3.818213    -0.479633     0.320391
 H     3.724555    -1.281795    -0.431298
 H     4.450805     0.294268    -0.147102
 C     4.516583    -1.031321     1.556621
 H     3.876175    -1.812137     2.007811
 H     4.589941    -0.235272     2.320100
 C     5.898997    -1.606327     1.286757
 H     5.818902    -2.392498     0.515059
 H     6.539695    -0.821694     0.846749
 C     6.564288    -2.174236     2.530146
 H     7.560021    -2.587712     2.309296
 H     5.959047    -2.983008     2.971455
 H     6.690030    -1.400002     3.304288
 C    -0.043754    -0.130156     3.188739
 H    -0.267870     0.935427     3.272309
 C    -0.290368    -2.249253     2.097699
 H    -0.721591    -2.889651     1.327899
 C     0.845147    -0.695780     4.093651
 H     1.281418    -0.069704     4.877114
 C     0.614630    -2.810926     2.999832
 H     0.862121    -3.873219     2.915276
 C     1.211905    -2.045953     4.004296
 C     2.229801    -2.632539     4.937150
 H     2.191234    -3.731080     4.939267
 H     3.249996    -2.336979     4.638834
 H     2.080959    -2.281523     5.969274
 H    -3.357302    -0.384905     2.585134
 H    -2.614428     1.217409     2.696432
 C    -4.242471     1.120038     1.284493
 H    -3.886076     1.886799     0.579653
 H    -4.758912     0.359770     0.674682
 C    -5.241027     1.741081     2.251340
 H    -4.729560     2.514503     2.853152
 H    -5.581677     0.977210     2.974375
 C    -6.448354     2.358025     1.559079
 H    -6.098421     3.111337     0.831295
 H    -6.957869     1.581577     0.961003
 C    -7.438244     2.994650     2.521055
 H    -8.298613     3.430671     1.990969
 H    -6.964947     3.800183     3.105386
 H    -7.829496     2.255861     3.239165
 H    -1.439132    -2.022143    -0.376688
 H    -2.915828    -2.072887     0.608117
 C    -3.100376    -1.086560    -1.328357
 H    -4.024022    -0.536966    -1.083724
 H    -2.488281    -0.394995    -1.931403
 C    -3.438546    -2.321066    -2.151851
 H    -4.113624    -2.982116    -1.577728
 H    -2.512631    -2.901607    -2.312205
 C    -4.064005    -2.001924    -3.501507
 H    -4.991875    -1.422706    -3.349013
 H    -3.384552    -1.332667    -4.058804
 C    -4.360118    -3.238875    -4.333940
 H    -4.806758    -2.981535    -5.306388
 H    -5.059969    -3.913225    -3.814398
 H    -3.440162    -3.813329    -4.532775
