  88
scf done:    -4025.688674
 C    -0.514821     1.853074    -3.090902
 H    -1.089966     1.388986    -3.898561
 H    -1.053562     2.646174    -2.564504
 C     0.891823     1.859089    -3.131995
 H     1.420977     1.392801    -3.968972
 H     1.438722     2.667638    -2.643359
 H     0.248748     1.616148    -0.818587
Co     0.216558     0.497614    -1.780479
 C    -1.268461     0.359212     1.224506
 O    -2.824262     0.849049    -0.997187
 O    -1.866960    -1.537123    -0.630269
 C     1.784406    -1.620623     0.378282
 O     3.303190    -0.296275    -1.466882
 O     2.354541     0.936963     0.592811
 P     1.876563    -0.082225    -0.622322
 P    -1.424337     0.072906    -0.576983
 C     0.082254    -0.824997    -2.936124
 O    -0.047721    -1.665182    -3.704338
 C    -0.941940    -0.741412     2.028062
 H    -0.863715    -1.729405     1.573388
 C    -1.305610     1.655417     1.785133
 C    -1.596330     2.889569     0.983424
 H    -2.678674     3.010893     0.820088
 H    -1.112324     2.856914    -0.003275
 H    -1.231754     3.782936     1.507851
 C    -0.686618    -0.588199     3.386895
 H    -0.423542    -1.459289     3.990812
 C    -1.062617     1.779527     3.158337
 H    -1.103104     2.776499     3.605944
 C    -0.759473     0.679855     3.956680
 H    -0.568333     0.818014     5.023687
 C    -3.970494     1.155856    -0.316932
 C    -4.383733     0.528569     0.859115
 H    -3.790807    -0.267583     1.305218
 C    -4.752413     2.163039    -0.888351
 H    -4.400877     2.631631    -1.809441
 C    -5.578207     0.924391     1.458545
 H    -5.897039     0.426644     2.377271
 C    -5.945107     2.544579    -0.282251
 H    -6.551403     3.331634    -0.737069
 C    -6.363452     1.929019     0.897758
 H    -7.299250     2.228248     1.374477
 C    -3.108519    -2.092309    -0.497548
 C    -4.085020    -1.867827    -1.469935
 H    -3.849989    -1.227055    -2.320674
 C    -3.374206    -2.923148     0.592017
 H    -2.591398    -3.105602     1.329143
 C    -5.342448    -2.446027    -1.324829
 H    -6.109732    -2.256325    -2.078942
 C    -4.634325    -3.503667     0.721529
 H    -4.842039    -4.150950     1.577040
 C    -5.625287    -3.259881    -0.228107
 H    -6.614430    -3.709417    -0.118113
 C     1.056488    -2.632498    -0.264934
 H     0.635969    -2.445236    -1.252196
 C     2.318610    -1.865269     1.667057
 C     3.123752    -0.888467     2.472262
 H     2.497743    -0.051577     2.813380
 H     3.946781    -0.454847     1.890610
 H     3.545138    -1.391220     3.353479
 C     0.830323    -3.870603     0.324972
 H     0.253576    -4.630517    -0.206134
 C     2.064637    -3.117218     2.245285
 H     2.466930    -3.314158     3.242562
 C     1.331667    -4.108651     1.600474
 H     1.159394    -5.067793     2.095196
 C     4.444911    -0.781061    -0.878862
 C     4.675339    -2.156884    -0.849821
 H     3.934566    -2.828384    -1.286255
 C     5.374256     0.103861    -0.329916
 H     5.177719     1.176623    -0.361144
 C     5.836939    -2.646219    -0.257562
 H     6.013418    -3.724092    -0.231433
 C     6.535469    -0.396206     0.255962
 H     7.262212     0.297639     0.685154
 C     6.768478    -1.770314     0.299414
 H     7.677951    -2.158441     0.763274
 C     2.430449     2.293787     0.497974
 C     1.944846     3.038680     1.572921
 H     1.488413     2.509850     2.410780
 C     3.014072     2.931548    -0.598888
 H     3.391767     2.335113    -1.430714
 C     2.035976     4.427500     1.544411
 H     1.652917     5.008696     2.386956
 C     3.092821     4.322904    -0.618271
 H     3.543130     4.820516    -1.480554
 C     2.605540     5.076467     0.448556
 H     2.671237     6.166307     0.426970
