  84
scf done:    -4121.681293
 C    -0.539437     0.360364    -3.554282
 H    -0.989166    -0.475179    -4.101642
 H    -1.138522     1.275511    -3.576106
 C     0.864715     0.431341    -3.436265
 H     1.491090    -0.348543    -3.881581
 H     1.359428     1.406638    -3.390654
 H    -0.090365     1.348321    -1.430397
Co     0.028910    -0.107020    -1.674465
 C    -1.582213     1.156965     1.030847
 C    -3.172799     0.827060    -1.329229
 C    -2.487330    -1.420144     0.262583
 C     1.664246    -1.038385     1.113510
 C     3.358945    -0.642796    -1.148127
 C     2.324317     1.619376     0.232509
 P     1.788727    -0.016653    -0.409234
 P    -1.731767     0.092872    -0.462590
 C    -0.064781    -1.834679    -1.951335
 O    -0.178682    -2.960606    -2.157853
 C    -2.088745     0.779841     2.278520
 H    -2.643912    -0.153819     2.383789
 C    -0.876124     2.364108     0.941373
 H    -0.473012     2.676307    -0.023050
 C    -1.859650     1.568682     3.405194
 H    -2.251332     1.243796     4.373257
 C    -0.651865     3.147911     2.065838
 H    -0.076911     4.072855     1.965518
 C    -1.126846     2.756982     3.325544
 C    -0.854615     3.596172     4.538481
 H    -1.342266     4.580833     4.456377
 H    -1.220876     3.114410     5.455579
 H     0.224470     3.781444     4.656671
 C    -3.615888     0.206140    -2.505655
 H    -3.095958    -0.681255    -2.873677
 C    -3.842528     1.966711    -0.874662
 H    -3.516718     2.460397     0.043216
 C    -4.707755     0.700867    -3.208407
 H    -5.065558     0.224256    -4.122794
 C    -4.930483     2.483192    -1.577929
 H    -5.460029     3.374859    -1.237451
 C    -5.349423     1.841490    -2.735113
 F    -6.389373     2.326870    -3.409420
 C    -1.633640    -2.407114     0.771781
 H    -0.552078    -2.284927     0.695384
 C    -3.871304    -1.603801     0.375318
 H    -4.555345    -0.845846    -0.012257
 C    -2.140735    -3.546187     1.387697
 H    -1.479238    -4.317616     1.785755
 C    -4.393672    -2.744177     0.980993
 H    -5.469925    -2.902783     1.070283
 C    -3.518586    -3.700406     1.482383
 F    -4.012605    -4.790769     2.064950
 C     2.057449    -2.381251     1.100357
 H     2.594656    -2.785584     0.239376
 C     0.984284    -0.558385     2.242606
 H     0.658708     0.481997     2.287075
 C     1.761649    -3.220292     2.173575
 H     2.076738    -4.266791     2.135316
 C     0.698901    -1.400151     3.310976
 H     0.158412    -0.997157     4.172052
 C     1.069026    -2.750952     3.294247
 C     0.704088    -3.661718     4.428704
 H     0.922533    -3.199260     5.403173
 H    -0.375022    -3.889220     4.414560
 H     1.246480    -4.615932     4.373234
 C     3.305064    -1.664191    -2.105219
 H     2.339384    -2.058065    -2.423557
 C     4.614480    -0.147468    -0.773016
 H     4.688048     0.658579    -0.040910
 C     4.466094    -2.197111    -2.658259
 H     4.430717    -2.996459    -3.400482
 C     5.783968    -0.659816    -1.326851
 H     6.765822    -0.275251    -1.044966
 C     5.694407    -1.683484    -2.262160
 F     6.809087    -2.177921    -2.793712
 C     2.137052     2.743268    -0.581195
 H     1.650052     2.619514    -1.550988
 C     2.942219     1.790517     1.477619
 H     3.115660     0.928651     2.124958
 C     2.533537     4.009417    -0.163580
 H     2.387920     4.891400    -0.789845
 C     3.334380     3.052953     1.916408
 H     3.805404     3.199166     2.890150
 C     3.119633     4.148461     1.089546
 F     3.483441     5.358486     1.506339
