  80
scf done:    -3272.776078
 C    -1.688702    -1.257025     2.319003
 H    -1.833393    -0.677449     3.237887
 H    -2.607530    -1.417860     1.745049
 C    -0.655828    -2.215882     2.258176
 H    -0.014953    -2.368447     3.133448
 H    -0.798167    -3.114300     1.649525
 H    -0.804364    -1.229649     0.031738
Co    -0.157901    -0.577234     1.176102
 C    -3.004472     0.328538    -0.344279
 C    -2.202573     2.138651     1.752429
 C    -0.887315     2.206423    -0.870087
 C     2.607571     0.102329    -0.643524
 C     2.868013    -2.161594     1.102677
 C     1.230625    -2.319684    -1.441111
 P     1.579736    -1.257795     0.059883
 P    -1.465215     1.000857     0.444738
 C     0.827437     0.197435     2.391684
 O     1.561745     0.624618     3.174403
 C    -2.879049    -0.647768    -1.346335
 H    -1.885473    -1.002979    -1.624000
 C    -4.304327     0.706045     0.010024
 H    -4.478513     1.444264     0.792383
 C    -3.989607    -1.196546    -1.973929
 H    -3.844339    -1.952790    -2.750969
 C    -5.420615     0.143755    -0.611081
 H    -6.419258     0.460905    -0.297632
 C    -5.289231    -0.813208    -1.617601
 C    -6.484754    -1.428842    -2.282622
 H    -7.419230    -0.952380    -1.954819
 H    -6.423125    -1.338813    -3.378514
 H    -6.557105    -2.504008    -2.051410
 H    -3.014624     1.514670     2.162477
 C    -1.257147     2.428839     2.911570
 H    -1.746863     3.111444     3.624920
 H    -0.991508     1.514805     3.455563
 H    -0.321572     2.906175     2.585452
 C    -2.806583     3.435174     1.216379
 H    -3.461822     3.284322     0.347026
 H    -3.403844     3.923084     2.003907
 H    -2.021929     4.147981     0.920632
 H    -1.713305     2.917153    -1.032955
 C     0.336849     2.958357    -0.362262
 H     0.709475     3.650187    -1.134668
 H     0.120660     3.550538     0.538483
 H     1.149233     2.260422    -0.117875
 C    -0.603157     1.501381    -2.188442
 H    -1.523683     1.156619    -2.678314
 H    -0.084525     2.185686    -2.878817
 H     0.053702     0.634008    -2.033074
 C     3.303245     0.935202     0.250226
 H     3.272138     0.735583     1.323185
 C     2.669522     0.427108    -2.001533
 H     2.149657    -0.180746    -2.743180
 C     4.024611     2.033269    -0.198549
 H     4.553399     2.656680     0.528114
 C     3.385153     1.538698    -2.447918
 H     3.404802     1.764562    -3.517845
 C     4.075180     2.364623    -1.559743
 C     4.826524     3.574365    -2.030850
 H     4.316439     4.501054    -1.720102
 H     5.841400     3.607585    -1.605552
 H     4.914802     3.594047    -3.126150
 H     2.857696    -1.549635     2.021376
 C     2.406964    -3.563218     1.490702
 H     3.048720    -3.955375     2.295717
 H     1.370834    -3.577435     1.847647
 H     2.491396    -4.260939     0.643683
 C     4.301992    -2.196403     0.582482
 H     4.676907    -1.205223     0.295960
 H     4.962831    -2.587406     1.373682
 H     4.409100    -2.860370    -0.285770
 H     0.744272    -1.582441    -2.106347
 C     2.454443    -2.888466    -2.152576
 H     2.164679    -3.275306    -3.143191
 H     3.252697    -2.148491    -2.299678
 H     2.877730    -3.733517    -1.590148
 C     0.200281    -3.415076    -1.183600
 H    -0.693890    -3.016300    -0.685309
 H    -0.106190    -3.866406    -2.140861
 H     0.607896    -4.219926    -0.555815
