  84
scf done:    -3724.908811
 C     0.554623    -2.782263     2.329176
 H     0.963184    -3.716802     1.929576
 H     1.197632    -2.302683     3.073055
 C    -0.844029    -2.602672     2.373353
 H    -1.509752    -3.388151     2.000784
 H    -1.292079    -1.999517     3.169277
 H     0.163449    -0.458200     1.962518
Co    -0.028662    -1.476260     0.904623
 C     1.646624     1.416452     0.330852
 C     3.213926    -0.755864     1.360196
 C     2.431777    -0.708360    -1.373077
 C    -1.715094     0.338956    -1.369867
 C    -3.383393    -1.249284     0.321477
 C    -2.235017     1.142473     1.347944
 P    -1.781773    -0.328958     0.341320
 P     1.744621    -0.420887     0.311381
 C    -0.024057    -2.682395    -0.366091
 O     0.031092    -3.494577    -1.179146
 C     2.141294     2.209311    -0.709477
 H     2.659585     1.746063    -1.550850
 C     0.988377     2.052376     1.391763
 H     0.592929     1.451244     2.211551
 C     1.945430     3.589791    -0.703377
 H     2.325552     4.186768    -1.537301
 C     0.795847     3.427913     1.394163
 H     0.251018     3.887792     2.223459
 C     1.258129     4.223306     0.336676
 C     1.020395     5.704445     0.334553
 H     1.343980     6.165762    -0.608876
 H    -0.046948     5.933358     0.479335
 H     1.568956     6.195061     1.154875
 C     3.632367    -2.087097     1.492457
 C     3.920866     0.247813     2.027991
 C     5.440263    -1.398563     2.937719
 C     5.025736    -0.074663     2.817730
 C     4.742505    -2.405252     2.267671
 H     3.079487    -2.876985     0.978483
 H     5.061358    -3.446594     2.356829
 H     6.306933    -1.649031     3.554267
 H     5.567598     0.718942     3.338173
 H     3.610238     1.290008     1.928224
 C     1.532377    -0.810924    -2.441397
 C     3.805888    -0.773899    -1.634400
 C     3.365473    -1.033337    -3.997620
 C     4.268330    -0.939450    -2.939334
 C     1.995825    -0.966092    -3.745089
 H     0.458342    -0.761480    -2.254998
 H     1.276256    -1.042900    -4.563838
 H     3.730354    -1.164165    -5.019410
 H     5.343183    -0.994318    -3.128984
 H     4.520669    -0.692537    -0.812655
 C    -2.175662    -0.421991    -2.449933
 H    -2.731668    -1.345045    -2.271114
 C    -1.013543     1.522090    -1.644763
 H    -0.636807     2.139378    -0.828077
 C    -1.923328    -0.022193    -3.761256
 H    -2.289871    -0.638727    -4.586824
 C    -0.771710     1.916563    -2.955121
 H    -0.211611     2.838522    -3.134800
 C    -1.208557     1.146805    -4.040430
 C    -0.887173     1.552038    -5.448468
 H    -1.075747     2.623787    -5.613154
 H     0.178386     1.373852    -5.670806
 H    -1.479806     0.983798    -6.179195
 C    -3.382647    -2.607395    -0.021741
 C    -4.604646    -0.635821     0.626577
 C    -5.783875    -2.706590     0.219403
 C    -5.794217    -1.360103     0.578432
 C    -4.573782    -3.327654    -0.083944
 H    -2.440765    -3.108785    -0.247440
 H    -4.551649    -4.384409    -0.360747
 H    -6.717416    -3.273222     0.182329
 H    -6.736822    -0.865519     0.825557
 H    -4.630364     0.417228     0.912191
 C    -1.991331     1.098586     2.725452
 C    -2.848664     2.279312     0.808194
 C    -2.921682     3.311011     2.993025
 C    -3.180814     3.359800     1.624415
 C    -2.334455     2.171853     3.543652
 H    -1.505956     0.216037     3.148372
 H    -2.134719     2.120683     4.616692
 H    -3.181574     4.158676     3.631887
 H    -3.648584     4.244552     1.185509
 H    -3.064810     2.326688    -0.260958
