  78
scf done:    -4962.051092
 C     0.483264     0.563400     3.723005
 H     0.894358    -0.256304     4.322090
 H     1.115128     1.456158     3.701886
 C    -0.914440     0.677768     3.578151
 H    -1.575369    -0.052566     4.055911
 H    -1.372174     1.665719     3.467121
 H     0.097318     1.444533     1.537848
Co    -0.073465     0.009459     1.861609
 C     1.616407     1.040840    -0.886700
 C     3.159324     0.847664     1.518096
 C     2.455341    -1.489511     0.067510
 C    -1.691415    -1.053102    -0.870861
 C    -3.417202    -0.435592     1.313304
 C    -2.273783     1.687791    -0.197248
 P    -1.812251     0.084959     0.569187
 P     1.718899     0.079311     0.682282
 C    -0.050101    -1.704960     2.227626
 O     0.013479    -2.824300     2.482915
 C     2.133264     0.562722    -2.096996
 H     2.668644    -0.387784    -2.126063
 C     0.941533     2.268103    -0.889907
 H     0.533817     2.656377     0.044352
 C     1.947903     1.268589    -3.283472
 H     2.339525     0.885649    -4.227374
 C     0.749691     2.986377    -2.064710
 H     0.202712     3.930506    -2.058086
 C     1.242988     2.471464    -3.263654
Cl     0.976920     3.334333    -4.739122
 C     3.570821     0.303116     2.742924
 H     3.027792    -0.546027     3.163852
 C     3.860749     1.937911     0.995031
 H     3.562485     2.372232     0.038739
 C     4.661668     0.824946     3.427344
 H     4.994997     0.407439     4.379088
 C     4.948105     2.481295     1.678245
 H     5.502000     3.335076     1.283813
 C     5.334859     1.915840     2.885439
 F     6.373431     2.426900     3.541056
 C     3.836712    -1.712048     0.004070
 H     4.529663    -0.957537     0.382177
 C     1.591385    -2.474167    -0.429392
 H     0.512215    -2.321588    -0.384942
 C     4.344892    -2.887426    -0.543648
 H     5.418577    -3.077326    -0.594193
 C     2.084153    -3.644313    -0.996434
 H     1.416615    -4.403926    -1.406903
 C     3.460056    -3.836288    -1.042712
 F     3.942882    -4.954678    -1.575930
 C    -2.106617    -2.385159    -0.743893
 H    -2.662926    -2.703075     0.140676
 C    -0.986402    -0.681770    -2.024477
 H    -0.645233     0.346206    -2.153761
 C    -1.804680    -3.328265    -1.722401
 H    -2.119768    -4.367065    -1.611560
 C    -0.684008    -1.612964    -3.012534
 H    -0.120271    -1.317180    -3.898546
 C    -1.080874    -2.938780    -2.848120
Cl    -0.648394    -4.119354    -4.038178
 C    -3.418431    -1.380235     2.347684
 H    -2.473509    -1.775443     2.721949
 C    -4.646799     0.066043     0.866860
 H    -4.677180     0.814849     0.073423
 C    -4.608856    -1.833867     2.908735
 H    -4.617103    -2.573175     3.711488
 C    -5.844783    -0.367220     1.426714
 H    -6.806888     0.022570     1.089459
 C    -5.810328    -1.316924     2.440733
 F    -6.952001    -1.735122     2.978241
 C    -2.855694     1.797783    -1.466545
 H    -3.046878     0.902870    -2.061949
 C    -2.066887     2.855595     0.547512
 H    -1.609132     2.779815     1.536385
 C    -3.190778     3.041286    -1.996758
 H    -3.628463     3.139472    -2.991688
 C    -2.408636     4.103982     0.038718
 H    -2.248672     5.019645     0.610801
 C    -2.958582     4.180664    -1.236419
 F    -3.269215     5.371418    -1.738436
