 110
scf done:    -5480.819254
 C    -0.046264     1.705992     2.366059
 H    -0.964929     1.670330     2.960692
 H     0.872145     1.592668     2.946157
 C    -0.026311     2.370647     1.128688
 H    -0.934511     2.865263     0.773412
 H     0.895659     2.816952     0.748905
 H     0.074403     0.344657    -0.630631
Co    -0.066374     0.353405     0.846781
 C     2.957704     1.243415    -0.479425
 C     3.365505    -0.613461     1.449995
 C     1.958128    -1.560786    -0.853203
 C    -2.464763    -0.984289    -1.120108
 C    -3.203440     0.170256     1.498372
 C    -2.767013     1.824917    -0.893624
 P    -2.068965     0.383716     0.049786
 P     1.975640    -0.115623     0.297020
 C    -0.288726    -1.061022     1.838963
 O    -0.428243    -1.974738     2.535928
 C     3.500055     1.280416    -1.767177
 H     3.370771     0.434745    -2.437750
 C     3.202840     2.329699     0.371794
 H     2.840565     2.301218     1.402639
 C     4.221166     2.385889    -2.211238
 H     4.640344     2.409141    -3.218734
 C     3.921068     3.442578    -0.055907
 H     4.100349     4.284643     0.614296
 C     4.417025     3.469365    -1.357167
Cl     5.303351     4.853289    -1.913284
 C     4.608589    -1.006730     0.912449
 O     4.703822    -1.001057    -0.429169
 C     5.902278    -1.351075    -1.054892
 H     5.728448    -1.247232    -2.133669
 H     6.730038    -0.683001    -0.760372
 H     6.187169    -2.395591    -0.839134
 C     3.216808    -0.673085     2.847192
 O     2.024372    -0.313674     3.343609
 C     1.702726    -0.563744     4.679786
 H     0.645707    -0.291856     4.794397
 H     2.310328     0.043985     5.373488
 H     1.824697    -1.631058     4.932874
 C     4.268420    -1.091970     3.675648
 H     4.138600    -1.127578     4.756502
 C     5.668714    -1.412896     1.732272
 H     6.625544    -1.705841     1.302307
 C     5.483413    -1.452262     3.108714
 H     6.305589    -1.771568     3.753848
 C     2.094018    -2.866162    -0.332991
 O     2.217563    -2.959682     1.000992
 C     2.238145    -4.205444     1.631236
 H     2.293016    -4.001192     2.707913
 H     1.320530    -4.781738     1.421305
 H     3.118817    -4.801599     1.335141
 C     1.590668    -1.449068    -2.207404
 O     1.228385    -0.226131    -2.640594
 C     0.483617    -0.112207    -3.825918
 H     0.083458     0.907327    -3.839549
 H    -0.360581    -0.820889    -3.832038
 H     1.109273    -0.276595    -4.720553
 C     1.566135    -2.568704    -3.050775
 H     1.317232    -2.457336    -4.105075
 C     2.055212    -3.992459    -1.163501
 H     2.195714    -4.989952    -0.749226
 C     1.822078    -3.827065    -2.524446
 H     1.803287    -4.700940    -3.179994
 C    -1.516429    -1.989027    -1.313691
 H    -0.576301    -1.931313    -0.763561
 C    -3.670335    -1.045990    -1.826494
 H    -4.431168    -0.280046    -1.675274
 C    -1.759778    -3.048508    -2.183098
 H    -1.011091    -3.827614    -2.329837
 C    -3.926107    -2.095155    -2.704760
 H    -4.866349    -2.146938    -3.256401
 C    -2.967255    -3.092805    -2.875534
Cl    -3.279710    -4.404189    -3.970656
 C    -3.514298     1.270650     2.318158
 O    -3.148167     2.478460     1.841497
 C    -3.239169     3.613438     2.652048
 H    -2.808636     4.439939     2.072882
 H    -4.286569     3.858964     2.901850
 H    -2.663792     3.491624     3.585710
 C    -3.542752    -1.109551     1.971736
 O    -3.180469    -2.145529     1.196804
 C    -3.244494    -3.453370     1.684966
 H    -2.805973    -4.089447     0.904786
 H    -4.285054    -3.777070     1.863064
 H    -2.658198    -3.562868     2.612552
 C    -4.204318    -1.279900     3.195874
 H    -4.462007    -2.278130     3.547575
 C    -4.172813     1.112454     3.541580
 H    -4.410560     1.976876     4.160481
 C    -4.514270    -0.167739     3.967055
 H    -5.024695    -0.299724     4.924002
 C    -1.922992     2.661096    -1.654760
 O    -0.671725     2.235726    -1.873157
 C     0.336237     3.155582    -2.199335
 H     1.285833     2.618115    -2.097391
 H     0.237046     3.525191    -3.235474
 H     0.333087     4.013949    -1.507995
 C    -4.124017     2.201174    -0.799884
 O    -4.954618     1.325027    -0.200810
 C    -6.187432     1.752742     0.303806
 H    -6.567236     0.932636     0.926853
 H    -6.914402     1.961333    -0.500586
 H    -6.073314     2.654251     0.929090
 C    -4.590683     3.412566    -1.318728
 H    -5.639521     3.689672    -1.218164
 C    -2.382102     3.882171    -2.171358
 H    -1.707262     4.526215    -2.733700
 C    -3.706165     4.251493    -1.986371
 H    -4.064513     5.199808    -2.394224
