  90
scf done:    -4001.861777
 C    -0.026333    -3.369095    -2.080340
 H     0.445427    -3.373586    -3.069212
 H     0.454287    -4.033579    -1.354927
 C    -1.411330    -3.118628    -1.960722
 H    -2.005414    -2.916765    -2.858828
 H    -1.973907    -3.584739    -1.147604
 H    -0.275489    -2.153569    -0.004848
Co    -0.339984    -1.518530    -1.345363
 C     1.492604     0.057952     0.920753
 C     2.606593    -2.423928    -0.008921
 C     2.802638    -0.222831    -1.837608
 C    -1.521663     1.357027     0.072390
 C    -3.414462    -0.141601    -1.434090
 C    -2.590593    -1.040811     1.213191
 P    -1.884668    -0.388095    -0.378370
 P     1.590028    -0.972138    -0.605668
 C    -0.287275    -0.656362    -2.857855
 O    -0.199055    -0.052465    -3.837878
 C     1.696107     1.441363     0.991439
 H     2.039182     1.999509     0.125263
 C     1.001615    -0.586243     2.067762
 H     0.802072    -1.659623     2.043059
 C     1.442494     2.151043     2.163080
 H     1.594685     3.230487     2.208873
 C     0.741301     0.106282     3.245302
 H     0.360376    -0.399300     4.134711
 C     0.965200     1.477906     3.276308
 F     0.701064     2.156489     4.391603
 H     2.589666    -3.134008    -0.848929
 H     2.023572    -2.892420     0.797232
 C     4.011944    -2.118027     0.406479
 C     4.303102    -1.510100     1.636663
 H     3.494571    -1.289229     2.335057
 C     5.079402    -2.394975    -0.459754
 H     4.879060    -2.893931    -1.412523
 C     5.610785    -1.169918     1.973724
 H     5.811666    -0.693204     2.936167
 C     6.388839    -2.052973    -0.126253
 H     7.201337    -2.276156    -0.821741
 C     6.659048    -1.431550     1.091273
 H     7.683527    -1.159977     1.356020
 H     2.273582    -0.265590    -2.798216
 H     3.633640    -0.939825    -1.895343
 C     3.353032     1.151004    -1.626791
 C     4.440984     1.369530    -0.771814
 H     4.912887     0.520376    -0.272253
 C     2.764710     2.251199    -2.263248
 H     1.929801     2.086073    -2.950403
 C     4.902406     2.660880    -0.532034
 H     5.745467     2.814666     0.145823
 C     3.224753     3.544366    -2.020465
 H     2.751639     4.393034    -2.521059
 C     4.289968     3.754417    -1.145311
 H     4.649172     4.767518    -0.950102
 C    -1.973931     1.975627     1.242956
 H    -2.551013     1.417832     1.980957
 C    -0.796473     2.125662    -0.847519
 H    -0.419939     1.661872    -1.761389
 C    -1.707927     3.319165     1.495079
 H    -2.046246     3.805107     2.411732
 C    -0.539957     3.473512    -0.622459
 H     0.033278     4.073376    -1.331266
 C    -0.996410     4.051959     0.555488
 F    -0.731818     5.335620     0.794529
 H    -3.860173    -1.142233    -1.543780
 H    -3.022409     0.137824    -2.423577
 C    -4.391504     0.876803    -0.937176
 C    -4.236031     2.227304    -1.282453
 H    -3.426031     2.516157    -1.956228
 C    -5.445962     0.536822    -0.079857
 H    -5.613717    -0.509649     0.184164
 C    -5.086165     3.203257    -0.772357
 H    -4.939161     4.248587    -1.054276
 C    -6.300187     1.511633     0.434290
 H    -7.116114     1.218921     1.099608
 C    -6.119250     2.850603     0.095680
 H    -6.786358     3.616002     0.498954
 H    -3.506937    -0.476732     1.445973
 H    -1.838443    -0.792588     1.977048
 C    -2.851640    -2.516232     1.202957
 C    -1.891988    -3.411536     1.692012
 H    -0.970557    -3.019045     2.126118
 C    -4.036603    -3.046343     0.678165
 H    -4.811245    -2.373961     0.304987
 C    -2.093891    -4.787699     1.631322
 H    -1.326610    -5.465085     2.013682
 C    -4.245489    -4.422564     0.617302
 H    -5.176848    -4.810370     0.198043
 C    -3.270036    -5.300222     1.085669
 H    -3.428442    -6.379689     1.032710
