 100
scf done:    -4182.835999
 C    -0.000686    -0.711303    -3.314456
 H     0.856276    -0.084209    -3.569568
 H     0.098755    -1.757240    -3.622166
 C    -1.275908    -0.148875    -3.148984
 H    -1.423417     0.925646    -3.293479
 H    -2.174315    -0.749001    -3.318465
 H     0.131510     0.852091    -1.401556
Co    -0.425385    -0.521564    -1.334067
 C    -1.085771     1.907572     0.962168
 O    -3.087264     1.164702    -0.609965
 O    -2.281320    -0.493698     1.202281
 C     2.048952    -2.476232    -0.158744
 O     2.663485    -0.380443    -1.732979
 O     1.888182     0.143917     0.702729
 P     1.512815    -0.786664    -0.609120
 P    -1.681319     0.483828    -0.012961
 C    -1.059621    -2.146986    -1.109768
 O    -1.466470    -3.203045    -0.928930
 C    -0.705581     1.650474     2.286179
 H    -0.809301     0.640886     2.686772
 C    -0.912927     3.196725     0.419350
 C    -1.225154     3.525724    -1.009456
 H    -2.301630     3.694034    -1.146329
 H    -0.939421     2.705662    -1.684235
 H    -0.692750     4.434486    -1.322466
 C    -0.207534     2.663222     3.097779
 H     0.082272     2.442878     4.127197
 C    -0.430519     4.205382     1.262492
 H    -0.305697     5.212072     0.854395
 C    -0.088853     3.953043     2.587206
 H     0.290236     4.762417     3.215773
 C    -3.968517     0.471639    -1.401224
 C    -4.210044    -0.890720    -1.219617
 H    -3.700719    -1.432186    -0.424790
 C    -4.645718     1.195975    -2.395879
 C    -4.394539     2.659214    -2.585173
 H    -4.490434     3.206821    -1.635261
 H    -3.375761     2.841995    -2.961526
 H    -5.103640     3.087560    -3.306325
 C    -5.105651    -1.557837    -2.051929
 H    -5.277386    -2.626445    -1.905045
 C    -5.549000     0.503752    -3.206140
 H    -6.081193     1.058566    -3.983731
 C    -5.777286    -0.862539    -3.052370
 H    -6.483763    -1.377204    -3.707059
 C    -3.375865    -0.313736     2.011686
 C    -3.979103     0.924742     2.229770
 H    -3.591010     1.816181     1.740118
 C    -3.869213    -1.482080     2.618541
 C    -3.207188    -2.802837     2.371998
 H    -3.080145    -3.005160     1.297867
 H    -2.196461    -2.827252     2.807719
 H    -3.790304    -3.621198     2.815472
 C    -5.088352     1.010674     3.068811
 H    -5.558145     1.982841     3.234608
 C    -4.981284    -1.361087     3.454633
 H    -5.376262    -2.262522     3.931163
 C    -5.592755    -0.130081     3.685197
 H    -6.463595    -0.065474     4.341084
 C     2.863650    -3.184804    -1.049337
 H     3.249500    -2.675370    -1.934533
 C     1.501323    -3.125737     0.970725
 C     0.615518    -2.418007     1.954023
 H    -0.197530    -1.867712     1.459279
 H     1.178699    -1.677019     2.543083
 H     0.167267    -3.135780     2.653972
 C     3.178875    -4.521422    -0.819952
 H     3.821136    -5.059082    -1.521119
 C     1.835226    -4.467482     1.180500
 H     1.425896    -4.978651     2.056082
 C     2.665046    -5.162668     0.303459
 H     2.902159    -6.211647     0.496351
 C     3.862713     0.272545    -1.595536
 C     4.963061    -0.345565    -1.004330
 H     4.860107    -1.353366    -0.601739
 C     3.950325     1.565207    -2.133786
 C     2.758955     2.189657    -2.793405
 H     2.515861     1.675613    -3.737258
 H     1.863236     2.115252    -2.158238
 H     2.943446     3.248602    -3.020345
 C     6.168060     0.342136    -0.901408
 H     7.021029    -0.135033    -0.414456
 C     5.177049     2.228258    -2.028571
 H     5.263498     3.239239    -2.436515
 C     6.275723     1.634405    -1.411073
 H     7.217978     2.180935    -1.331335
 C     3.064916     0.334292     1.391657
 C     3.744015    -0.726102     1.993720
 H     3.369761    -1.742612     1.886549
 C     3.523786     1.655012     1.516334
 C     2.792913     2.794688     0.880790
 H     3.267097     3.066790    -0.075097
 H     1.747458     2.536172     0.678170
 H     2.812638     3.682758     1.527806
 C     4.921204    -0.485850     2.696482
 H     5.452979    -1.322820     3.154980
 C     4.705902     1.863979     2.233342
 H     5.080044     2.886901     2.330567
 C     5.409983     0.812793     2.813684
 H     6.333332     1.008936     3.363231
