  98
scf done:    -3706.874238
 C     0.573735     3.517357    -1.178890
 H     1.303865     4.138734    -0.648116
 H     0.839722     3.333829    -2.225171
 C    -0.792046     3.584836    -0.803715
 H    -1.091136     4.249295     0.014960
 H    -1.564210     3.454786    -1.568067
 H    -0.395505     1.373846    -1.549827
Co     0.025515     1.846538    -0.212809
 C     1.042446    -0.998861    -1.671786
 C     3.049253     1.032306    -1.557185
 C     2.339795    -0.412832     0.836253
 C    -1.110972    -0.647811     1.691044
 C    -3.079144     1.356717     1.281735
 C    -2.390592    -0.423812    -0.882238
 P    -1.619822     0.600154     0.434722
 P     1.581539     0.414261    -0.624909
 C     0.592979     2.385282     1.352445
 O     0.998462     2.733712     2.373463
 C     0.946426    -2.313375    -1.202111
 H     1.296619    -2.569363    -0.202152
 C     0.577526    -0.725346    -2.967804
 H     0.616013     0.297638    -3.350137
 C     0.368490    -3.318891    -1.978310
 H     0.273560    -4.341803    -1.609004
 C     0.014889    -1.717900    -3.761412
 H    -0.359286    -1.506664    -4.764763
 C    -0.100184    -3.004997    -3.245762
 F    -0.680425    -3.951069    -3.981310
 H     2.660223     1.472907    -2.490125
 H     3.679323     0.173700    -1.838592
 C     3.824870     2.079555    -0.770819
 H     3.108170     2.809924    -0.362172
 H     4.312221     1.607598     0.101674
 C     4.887296     2.827281    -1.579059
 H     4.373557     3.295156    -2.440254
 C     5.500138     3.941772    -0.739274
 H     4.729756     4.637251    -0.371665
 H     6.234177     4.524508    -1.317114
 H     6.021798     3.528046     0.140081
 C     5.965067     1.895991    -2.122680
 H     6.725759     2.455732    -2.688668
 H     5.551038     1.130129    -2.795655
 H     6.481321     1.374128    -1.298816
 H     1.513699    -0.966638     1.310970
 H     2.564984     0.402845     1.540881
 C     3.551139    -1.315338     0.630011
 H     3.479213    -1.844936    -0.334910
 H     4.467167    -0.702058     0.561829
 C     3.724843    -2.356790     1.740171
 H     2.808495    -2.979581     1.746508
 C     4.908581    -3.268250     1.442704
 H     4.804577    -3.757495     0.461418
 H     5.010215    -4.056811     2.204283
 H     5.850630    -2.694992     1.430350
 C     3.848197    -1.720680     3.119950
 H     3.955070    -2.489635     3.900280
 H     2.964093    -1.117426     3.374276
 H     4.732391    -1.062948     3.171735
 C    -0.988187    -2.013012     1.404071
 H    -1.319930    -2.406310     0.443139
 C    -0.671414    -0.197976     2.946547
 H    -0.739343     0.861223     3.203826
 C    -0.409341    -2.896477     2.315168
 H    -0.298053    -3.958608     2.088351
 C    -0.099602    -1.066253     3.869989
 H     0.258074    -0.714729     4.839411
 C     0.041567    -2.408171     3.533265
 F     0.628782    -3.238232     4.393374
 H    -2.685660     1.914625     2.147866
 H    -3.701650     0.540082     1.680713
 C    -3.878441     2.289615     0.384610
 H    -3.196437     3.044249    -0.034038
 H    -4.278461     1.728496    -0.479758
 C    -5.041688     3.000746     1.080672
 H    -4.624364     3.539432     1.952586
 C    -5.659661     4.033644     0.145261
 H    -4.909818     4.761869    -0.200719
 H    -6.470725     4.590897     0.639147
 H    -6.086852     3.546572    -0.747453
 C    -6.098652     2.027443     1.590859
 H    -6.930786     2.562205     2.074354
 H    -5.691718     1.318519     2.327400
 H    -6.521073     1.439465     0.758099
 H    -1.566560    -1.038515    -1.278663
 H    -2.614243     0.287754    -1.691581
 C    -3.599309    -1.282325    -0.528519
 H    -3.524137    -1.646304     0.510083
 H    -4.517040    -0.668484    -0.560055
 C    -3.771684    -2.493744    -1.450281
 H    -2.852977    -3.105710    -1.355407
 C    -4.951124    -3.347406    -1.002368
 H    -4.841936    -3.667701     0.045732
 H    -5.052225    -4.251131    -1.623038
 H    -5.895327    -2.782999    -1.080991
 C    -3.900494    -2.095729    -2.916001
 H    -4.000708    -2.983972    -3.558484
 H    -3.020973    -1.535591    -3.266786
 H    -4.790361    -1.463180    -3.074640
