 104
scf done:    -3587.061315
 C     0.574128     3.512278    -1.183470
 H     1.307945     4.135883    -0.660193
 H     0.831670     3.327673    -2.231754
 C    -0.789294     3.581352    -0.797640
 H    -1.080888     4.249072     0.021243
 H    -1.567642     3.451751    -1.555922
 H    -0.397475     1.369913    -1.544741
Co     0.031678     1.844578    -0.211189
 C     1.025585    -1.012820    -1.669365
 C     3.028756     1.022460    -1.593708
 C     2.360382    -0.413844     0.817351
 C    -1.096648    -0.654255     1.695283
 C    -3.053683     1.363663     1.318120
 C    -2.407119    -0.409560    -0.863275
 P    -1.609737     0.599901     0.449997
 P     1.576516     0.403774    -0.636456
 C     0.614910     2.382423     1.348492
 O     1.033725     2.732628     2.363735
 C     0.933956    -2.324250    -1.195846
 H     1.286077    -2.575882    -0.195244
 C     0.553267    -0.751576    -2.965130
 H     0.587990     0.268606    -3.356092
 C     0.356515    -3.329464    -1.973778
 H     0.282530    -4.342685    -1.568226
 C    -0.006143    -1.756972    -3.742438
 H    -0.372736    -1.519361    -4.745260
 C    -0.133982    -3.065991    -3.254251
 C    -0.799102    -4.130290    -4.075648
 H    -1.882915    -3.943385    -4.153277
 H    -0.401450    -4.154103    -5.101792
 H    -0.663092    -5.126948    -3.633032
 H     2.622169     1.458167    -2.521299
 H     3.656260     0.164764    -1.883498
 C     3.813888     2.075475    -0.824958
 H     3.100780     2.802908    -0.405173
 H     4.319750     1.608982     0.039980
 C     4.857177     2.826742    -1.654461
 H     4.325068     3.289346    -2.507299
 C     5.479446     3.947008    -0.829434
 H     4.711987     4.639181    -0.449676
 H     6.199721     4.532139    -1.422134
 H     6.019201     3.538589     0.041496
 C     5.929768     1.899825    -2.215547
 H     6.676442     2.461631    -2.798078
 H     5.506736     1.129156    -2.877317
 H     6.464543     1.383740    -1.399826
 H     1.547837    -0.976984     1.305601
 H     2.588936     0.405371     1.516827
 C     3.579068    -1.299499     0.589312
 H     3.469205    -1.871089    -0.347406
 H     4.476693    -0.671167     0.449241
 C     3.836314    -2.288123     1.730609
 H     2.939585    -2.933901     1.807928
 C     5.030601    -3.178026     1.409888
 H     4.893200    -3.707234     0.453849
 H     5.192735    -3.934023     2.194005
 H     5.953908    -2.580272     1.329043
 C     4.012890    -1.587418     3.073079
 H     4.224006    -2.313843     3.873686
 H     3.113368    -1.023874     3.363002
 H     4.858021    -0.879088     3.038503
 C    -0.646677    -0.215051     2.950744
 H    -0.700927     0.844366     3.211643
 C    -0.989186    -2.018958     1.409249
 H    -1.324872    -2.408926     0.448069
 C    -0.089264    -1.099983     3.865147
 H     0.261397    -0.722208     4.829857
 C    -0.421557    -2.903454     2.327194
 H    -0.340581    -3.963154     2.067771
 C     0.050889    -2.462801     3.565572
 C     0.707722    -3.400235     4.534959
 H     0.563947    -4.449884     4.242671
 H     1.793035    -3.212862     4.585505
 H     0.310035    -3.270623     5.553059
 H    -2.645451     1.908515     2.185562
 H    -3.678949     0.548824     1.716448
 C    -3.854002     2.313079     0.439785
 H    -3.171574     3.073706     0.033183
 H    -4.256509     1.768943    -0.434338
 C    -5.015086     3.012867     1.150760
 H    -4.596625     3.530227     2.034961
 C    -5.629076     4.068769     0.238637
 H    -4.876584     4.802356    -0.089811
 H    -6.439365     4.617026     0.743921
 H    -6.056245     3.603394    -0.665641
 C    -6.076128     2.032294     1.638190
 H    -6.905654     2.558577     2.135449
 H    -5.671351     1.303620     2.356381
 H    -6.501657     1.466737     0.791545
 H    -1.599159    -1.040265    -1.268541
 H    -2.627258     0.307108    -1.669185
 C    -3.628646    -1.242252    -0.495651
 H    -3.523039    -1.650145     0.523577
 H    -4.525832    -0.598401    -0.465591
 C    -3.882647    -2.408501    -1.455462
 H    -2.986773    -3.058910    -1.418420
 C    -5.080088    -3.230313    -0.995175
 H    -4.947726    -3.590919     0.036978
 H    -5.240052    -4.107545    -1.641359
 H    -6.002761    -2.626637    -1.020419
 C    -4.050983    -1.944602    -2.897878
 H    -4.258721    -2.795799    -3.565421
 H    -3.148155    -1.439808    -3.273134
 H    -4.895250    -1.240111    -2.988332
