 100
scf done:    -4182.840731
 C    -1.290073     0.391812     3.028015
 H    -1.980592     1.223045     3.202179
 H    -1.762796    -0.593449     3.019535
 C     0.070000     0.525271     3.346612
 H     0.443933     1.458867     3.779477
 H     0.659501    -0.359077     3.600561
 H     0.010815    -0.816935     1.304494
Co    -0.202606     0.649258     1.328666
 C    -1.236259    -1.118673    -1.447309
 O    -2.912519    -0.758993     0.663428
 O    -2.408600     1.157417    -1.001610
 C     2.711858     1.970356     0.181454
 O     2.879319    -0.196726     1.620897
 O     1.877332    -0.461950    -0.739839
 P     1.741489     0.488781     0.610844
 P    -1.628039     0.009920    -0.060817
 C    -0.288411     2.414918     1.330793
 O    -0.254276     3.556931     1.400693
 C    -1.140865    -0.583878    -2.738865
 H    -1.349869     0.475165    -2.890124
 C    -0.971675    -2.488953    -1.234734
 C    -1.101937    -3.159970     0.101263
 H    -2.158214    -3.392158     0.311635
 H    -0.734876    -2.534646     0.926491
 H    -0.544697    -4.106935     0.112107
 C    -0.810521    -1.384418    -3.827263
 H    -0.754498    -0.948498    -4.827352
 C    -0.623852    -3.269675    -2.344408
 H    -0.416075    -4.331745    -2.189241
 C    -0.549737    -2.737586    -3.627246
 H    -0.282685    -3.380711    -4.469222
 C    -3.960386    -1.421446     0.085889
 C    -4.428624    -1.172134    -1.203654
 H    -3.960509    -0.404557    -1.817855
 C    -4.591696    -2.383563     0.879298
 H    -4.218870    -2.551010     1.891854
 C    -5.510676    -1.905182    -1.689870
 H    -5.868262    -1.702230    -2.703131
 C    -5.672239    -3.098643     0.378228
 H    -6.156379    -3.846595     1.012705
 C    -6.150498    -2.880287    -0.920906
 C    -7.302455    -3.676566    -1.462383
 H    -8.141341    -3.707771    -0.750003
 H    -7.008139    -4.720437    -1.661222
 H    -7.675571    -3.253004    -2.405520
 C    -2.753224     2.380145    -0.496689
 C    -3.466566     2.503282     0.695798
 H    -3.767463     1.605906     1.239029
 C    -2.381893     3.517509    -1.210659
 H    -1.827825     3.400220    -2.143682
 C    -3.773726     3.771854     1.179530
 H    -4.324121     3.861765     2.120104
 C    -2.705863     4.776380    -0.717158
 H    -2.403442     5.664071    -1.279453
 C    -3.394023     4.929855     0.492517
 C    -3.682835     6.292995     1.049959
 H    -2.832462     6.657883     1.650202
 H    -4.565995     6.283093     1.704925
 H    -3.857800     7.028418     0.251017
 C     3.717555     2.421537     1.044687
 H     3.975700     1.819777     1.917138
 C     2.349476     2.736179    -0.947411
 C     1.281207     2.300414    -1.907278
 H     0.405542     1.891111    -1.382974
 H     1.651484     1.508313    -2.577430
 H     0.950219     3.144343    -2.527876
 C     4.387044     3.614903     0.794506
 H     5.172445     3.952982     1.474294
 C     3.038437     3.931703    -1.177138
 H     2.769190     4.532039    -2.050336
 C     4.045923     4.371356    -0.323674
 H     4.561752     5.312065    -0.530918
 C     2.716732    -1.391005     2.263729
 C     3.135833    -1.472574     3.593015
 H     3.541437    -0.579515     4.072252
 C     2.191931    -2.516879     1.630336
 H     1.881839    -2.459761     0.586688
 C     3.019205    -2.672469     4.283462
 H     3.347517    -2.721341     5.325594
 C     2.074351    -3.709593     2.342809
 H     1.655796    -4.585253     1.838909
 C     2.480318    -3.815111     3.675323
 C     2.360269    -5.105396     4.433465
 H     1.815938    -4.965537     5.380617
 H     3.351765    -5.514101     4.688004
 H     1.826669    -5.867101     3.847814
 C     2.974578    -0.663237    -1.535013
 C     2.713545    -1.078345    -2.842139
 H     1.675047    -1.215221    -3.145862
 C     4.291559    -0.507449    -1.103775
 H     4.504115    -0.211153    -0.077872
 C     3.766940    -1.320297    -3.715167
 H     3.546572    -1.648836    -4.735002
 C     5.333408    -0.750242    -1.998143
 H     6.362558    -0.624782    -1.650430
 C     5.099482    -1.153783    -3.315232
 C     6.229972    -1.385234    -4.275769
 H     6.347060    -0.533163    -4.966297
 H     6.058561    -2.280285    -4.892881
 H     7.186051    -1.514431    -3.748719
