  78
scf done:    -4241.494329
 C     0.540161     0.413148     3.533017
 H     0.982961    -0.418092     4.092297
 H     1.146752     1.323506     3.540369
 C    -0.862673     0.493860     3.413226
 H    -1.495692    -0.274148     3.869401
 H    -1.349289     1.472270     3.351784
 H     0.100525     1.372310     1.392113
Co    -0.030419    -0.078764     1.658904
 C     1.596635     1.115165    -1.068400
 C     3.176011     0.836155     1.304282
 C     2.486755    -1.444707    -0.239286
 C    -1.677301    -1.045848    -1.112050
 C    -3.364331    -0.603808     1.142553
 C    -2.316413     1.630963    -0.272249
 P    -1.790380     0.002925     0.395764
 P     1.735519     0.085249     0.452249
 C     0.049474    -1.803388     1.960299
 O     0.153641    -2.927704     2.178589
 C     2.128425     0.710682    -2.299630
 H     2.684905    -0.225090    -2.373592
 C     0.889448     2.323579    -1.011494
 H     0.466742     2.650333    -0.060563
 C     1.935145     1.474629    -3.448399
 H     2.336365     1.163417    -4.414728
 C     0.689483     3.099656    -2.148096
 H     0.123186     4.031922    -2.109186
 C     1.209127     2.656632    -3.359521
 F     1.010425     3.381168    -4.456519
 C     3.615426     0.239033     2.494469
 H     3.094228    -0.640350     2.879462
 C     3.848561     1.965250     0.828054
 H     3.527206     2.441269    -0.100506
 C     4.706035     0.746915     3.189561
 H     5.060955     0.288697     4.114394
 C     4.935275     2.494892     1.523173
 H     5.466799     3.378551     1.165443
 C     5.350420     1.876845     2.694572
 F     6.388666     2.374571     3.361155
 C     3.870150    -1.644513    -0.328282
 H     4.556829    -0.890772     0.062650
 C     1.630332    -2.427426    -0.752741
 H     0.549457    -2.291912    -0.690657
 C     4.388446    -2.796309    -0.915426
 H     5.464051    -2.968172    -0.985829
 C     2.133155    -3.575526    -1.354707
 H     1.470971    -4.339280    -1.766246
 C     3.510913    -3.746108    -1.424969
 F     4.001914    -4.844657    -1.991304
 C    -2.086934    -2.385164    -1.069812
 H    -2.621873    -2.765744    -0.196950
 C    -0.996444    -0.591151    -2.251232
 H    -0.658050     0.444053    -2.311874
 C    -1.813837    -3.253608    -2.124170
 H    -2.125896    -4.299201    -2.096822
 C    -0.724878    -1.445692    -3.314817
 H    -0.187928    -1.097260    -4.198681
 C    -1.129049    -2.772692    -3.233347
 F    -0.851652    -3.602032    -4.236523
 C    -3.316509    -1.603164     2.123012
 H    -2.353192    -1.991498     2.454966
 C    -4.617229    -0.114631     0.750404
 H    -4.686341     0.675076     0.000305
 C    -4.481039    -2.121214     2.682722
 H    -4.450625    -2.903292     3.443313
 C    -5.789995    -0.612267     1.310286
 H    -6.769811    -0.232454     1.015252
 C    -5.706616    -1.614563     2.269256
 F    -6.824052    -2.094560     2.806468
 C    -2.123964     2.764437     0.527344
 H    -1.636025     2.651527     1.497979
 C    -2.936732     1.788761    -1.518097
 H    -3.115736     0.920274    -2.155037
 C    -2.518892     4.026153     0.095447
 H    -2.370710     4.915190     0.711059
 C    -3.327381     3.046566    -1.971009
 H    -3.798639     3.182325    -2.946047
 C    -3.109347     4.151470    -1.157424
 F    -3.473733     5.355967    -1.585779
