  68
scf done:    -3115.652103
 C     2.151124    -2.856310     0.223998
 H     2.608499    -3.285901    -0.674243
 H     2.882100    -2.488297     0.951291
 C     0.917990    -3.376703     0.676165
 H     0.450504    -4.189405     0.112347
 H     0.699927    -3.405691     1.747562
 H     0.955430    -1.058650     1.248968
Co     0.671160    -1.536491    -0.123479
 C     1.313590     1.705074     0.570029
 C     3.660116     0.073991    -0.092948
 C     1.953421     0.990837    -2.150170
 C    -2.281385     0.234919    -0.661760
 C    -2.701794    -2.233242     0.683019
 C    -1.383613    -0.042716     2.082442
 P    -1.370626    -0.942169     0.464096
 P     1.846668     0.256139    -0.445493
 C     0.400573    -2.087534    -1.766613
 O     0.269160    -2.474249    -2.842243
 C     0.422809     2.611405    -0.025959
 H     0.145605     2.491756    -1.073039
 C     1.614599     1.861039     1.943873
 C     2.490705     0.914809     2.714047
 H     3.557733     1.072361     2.495993
 H     2.249144    -0.131667     2.472364
 H     2.350604     1.056647     3.794409
 C    -0.155146     3.656816     0.686811
 H    -0.854113     4.330906     0.186697
 C     1.034323     2.930115     2.639703
 H     1.269144     3.046494     3.701387
 C     0.159004     3.823870     2.031432
 H    -0.282595     4.638610     2.610051
 H     3.741925    -0.463483     0.859280
 C     4.406076    -0.696994    -1.172746
 H     4.513499    -0.118444    -2.101451
 H     3.888461    -1.634925    -1.418811
 H     4.099508     1.073399     0.059230
 H     5.419402    -0.954748    -0.829119
 H     0.929248     1.202100    -2.487772
 C     2.835805     2.214973    -2.336321
 H     3.888215     2.007446    -2.094252
 H     2.510114     3.049749    -1.698371
 H     2.290231     0.153450    -2.783397
 H     2.803608     2.560715    -3.381526
 C    -1.592436     0.559070    -1.835347
 H    -0.623404     0.087136    -1.988557
 C    -3.564745     0.803628    -0.463152
 C    -4.513475     0.450614     0.650341
 H    -4.026099     0.288114     1.617317
 H    -5.060671    -0.474658     0.408391
 H    -5.261692     1.244657     0.781293
 C    -2.090669     1.444909    -2.785128
 H    -1.515362     1.661395    -3.688792
 C    -4.039680     1.717494    -1.415220
 H    -5.020584     2.172691    -1.251480
 C    -3.322594     2.047717    -2.560843
 H    -3.736058     2.760623    -3.278367
 H    -3.233767    -2.266867    -0.281847
 C    -2.263647    -3.632442     1.073660
 H    -1.683140    -3.642961     2.006459
 H    -1.638661    -4.084248     0.294145
 H    -3.420426    -1.842536     1.419260
 H    -3.145880    -4.275777     1.219234
 H    -2.354612     0.442766     2.246604
 C    -1.017866    -0.915715     3.270887
 H    -0.062639    -1.433901     3.097009
 H    -1.785671    -1.678439     3.474500
 H    -0.650344     0.766058     1.958470
 H    -0.910947    -0.304514     4.180393
