  94
scf done:    -4302.662547
 C    -0.646824     1.121457    -3.355783
 H    -1.428567     0.599184    -3.916896
 H    -0.910269     2.141457    -3.057882
 C     0.705159     0.773084    -3.541304
 H     0.971567    -0.011426    -4.256626
 H     1.489054     1.517532    -3.381384
 H     0.493228     1.309910    -1.216984
Co     0.024284     0.030451    -1.778758
 C    -1.974523     2.196664    -0.118051
 O    -3.142224     0.062878    -1.073101
 O    -1.558385    -0.229762     0.962015
 C     1.876396    -2.147220     0.067585
 O     3.175085    -0.156857    -0.999759
 O     1.531428     0.390917     0.905355
 P     1.604067    -0.460763    -0.539278
 P    -1.606570     0.475080    -0.557805
 C    -0.283134    -1.574538    -2.453144
 O    -0.388045    -2.613998    -2.922546
 C    -0.942077     2.945631     0.462615
 H     0.034977     2.482339     0.626703
 C    -3.226789     2.784960    -0.313776
 H    -4.030905     2.197849    -0.759318
 C    -1.154781     4.264733     0.844628
 H    -0.367201     4.863603     1.305274
 C    -3.447683     4.109062     0.056792
 H    -4.415430     4.591599    -0.090839
 C    -2.408560     4.829298     0.632103
 F    -2.616014     6.093844     0.989212
 C    -3.345814    -1.151612    -1.673093
 C    -3.069620    -2.336045    -0.989676
 H    -2.695503    -2.282465     0.034819
 C    -3.832128    -1.179519    -2.978503
 H    -4.038401    -0.237812    -3.489785
 C    -3.242752    -3.574054    -1.615449
 C    -2.844878    -4.836283    -0.909230
 H    -3.029003    -4.770106     0.173313
 H    -3.386135    -5.709771    -1.299270
 H    -1.767018    -5.024263    -1.051283
 C    -4.030226    -2.411721    -3.594879
 H    -4.410283    -2.447302    -4.618625
 C    -3.732696    -3.597466    -2.925224
 H    -3.875017    -4.556384    -3.429638
 C    -2.326830     0.185504     2.022868
 C    -3.699008    -0.053469     2.048337
 H    -4.169174    -0.552244     1.199084
 C    -1.694208     0.831580     3.085064
 H    -0.619994     1.013350     3.033442
 C    -4.468115     0.352813     3.145305
 C    -5.951457     0.121370     3.150651
 H    -6.460615     0.827432     2.473987
 H    -6.201507    -0.893174     2.805603
 H    -6.377787     0.257393     4.154371
 C    -2.454515     1.228070     4.180194
 H    -1.968879     1.731432     5.019609
 C    -3.828478     0.992288     4.211963
 H    -4.414989     1.310723     5.077586
 C     3.144373    -2.697695     0.283075
 H     4.031992    -2.115798     0.031021
 C     0.735389    -2.889806     0.394975
 H    -0.253991    -2.452374     0.240602
 C     3.272504    -3.974511     0.819607
 H     4.249917    -4.426139     0.997915
 C     0.851929    -4.165074     0.936321
 H    -0.024288    -4.759326     1.201196
 C     2.123628    -4.688954     1.140770
 F     2.244296    -5.908757     1.656807
 C     3.546287     0.994264    -1.638612
 C     3.138991     2.247594    -1.183419
 H     2.511803     2.316094    -0.293434
 C     4.359417     0.877402    -2.766090
 H     4.658840    -0.116605    -3.101919
 C     3.507952     3.408112    -1.873662
 C     3.031103     4.745571    -1.386060
 H     1.934470     4.759700    -1.283198
 H     3.452636     4.980177    -0.395281
 H     3.318924     5.552705    -2.073642
 C     4.743633     2.029928    -3.442019
 H     5.374600     1.948783    -4.330336
 C     4.315235     3.285405    -3.008172
 H     4.610734     4.181874    -3.558834
 C     2.277732     0.031440     2.001259
 C     3.597198     0.461017     2.118895
 H     4.030084     1.071422     1.323548
 C     1.690559    -0.758566     2.989893
 H     0.660040    -1.092404     2.862630
 C     4.361194     0.104633     3.236526
 C     5.776026     0.589128     3.369286
 H     6.312426     0.529749     2.410470
 H     5.802710     1.643717     3.690157
 H     6.334709     0.003207     4.112595
 C     2.447113    -1.114932     4.101380
 H     2.001197    -1.739121     4.879365
 C     3.769968    -0.690979     4.223665
 H     4.355376    -0.984043     5.099021
