 102
scf done:    -4159.006715
 C    -0.379810     2.434230    -2.504065
 H    -0.689216     2.204357    -3.529509
 H    -1.171490     2.874711    -1.890007
 C     0.969023     2.730668    -2.222323
 H     1.708870     2.720610    -3.030442
 H     1.211798     3.405991    -1.397333
 H     0.012105     1.514771    -0.311894
Co     0.486209     0.872693    -1.564661
 C    -2.701199     0.774176    -0.859278
 C    -1.681332    -1.767891    -1.820703
 C    -0.955523    -0.959901     0.871289
 C     2.499761    -1.246272     0.193769
 C     3.841624     0.840947    -1.243711
 C     2.420064     1.406559     1.238395
 P     2.221674     0.485047    -0.372143
 P    -1.174739    -0.243943    -0.850306
 C     0.876603    -0.033507    -3.002071
 O     1.088964    -0.665470    -3.943261
 C    -3.029847     1.627749     0.201979
 H    -2.439708     1.622606     1.117562
 C    -3.456606     0.871854    -2.035609
 H    -3.191810     0.275857    -2.911120
 C    -4.109923     2.502420     0.118862
 H    -4.372955     3.156879     0.951728
 C    -4.537942     1.742176    -2.137596
 H    -5.126249     1.817515    -3.053803
 C    -4.860504     2.541677    -1.048418
 F    -5.898199     3.372494    -1.132793
 H    -1.953428    -1.414798    -2.826510
 H    -0.739650    -2.322884    -1.946732
 C    -2.729380    -2.654192    -1.224662
 C    -2.356941    -3.767005    -0.457907
 H    -1.298598    -4.024545    -0.356751
 C    -4.094609    -2.372501    -1.361272
 H    -4.406039    -1.511779    -1.955542
 C    -3.321719    -4.543370     0.178765
 H    -3.015950    -5.400275     0.783647
 C    -5.077357    -3.141642    -0.730859
 C    -6.530523    -2.806223    -0.901645
 H    -6.679007    -1.723965    -1.028962
 H    -6.947905    -3.302105    -1.793867
 H    -7.124344    -3.135082    -0.036637
 C    -4.672584    -4.229187     0.052197
 H    -5.424227    -4.836917     0.563296
 H    -0.900290    -2.049174     0.726074
 H     0.047704    -0.639521     1.176496
 C    -1.940625    -0.638900     1.952895
 C    -1.551884     0.145328     3.046555
 H    -0.514416     0.480313     3.130488
 C    -3.264512    -1.078930     1.884095
 H    -3.579763    -1.690697     1.037632
 C    -2.478494     0.500986     4.023609
 H    -2.165603     1.115073     4.871744
 C    -4.208812    -0.728831     2.853058
 C    -5.631134    -1.185899     2.708174
 H    -5.678713    -2.252432     2.440991
 H    -6.205703    -1.032290     3.632458
 H    -6.136818    -0.630121     1.901143
 C    -3.801577     0.074195     3.924004
 H    -4.526483     0.361501     4.690504
 C     2.045421    -2.284722    -0.628725
 H     1.516975    -2.040611    -1.552320
 C     3.185675    -1.582591     1.368659
 H     3.580567    -0.804382     2.023326
 C     2.272163    -3.619621    -0.305068
 H     1.932828    -4.432822    -0.949590
 C     3.405424    -2.912069     1.718233
 H     3.939543    -3.181521     2.631133
 C     2.949346    -3.915042     0.872273
 F     3.174572    -5.187086     1.192279
 H     3.723473     0.382679    -2.237213
 H     3.850344     1.931576    -1.394704
 C     5.072303     0.344811    -0.555388
 C     5.810631     1.158141     0.314337
 H     5.540841     2.209874     0.435250
 C     5.474152    -0.986378    -0.716990
 H     4.907995    -1.629828    -1.396817
 C     6.898835     0.639797     1.012232
 H     7.471038     1.285910     1.682512
 C     6.555528    -1.528068    -0.017201
 C     6.906099    -2.978935    -0.174189
 H     6.174708    -3.613483     0.354101
 H     6.892026    -3.284316    -1.231253
 H     7.901107    -3.203643     0.234956
 C     7.264583    -0.695421     0.855415
 H     8.116754    -1.096287     1.410919
 H     1.797727     0.860447     1.964132
 H     3.467181     1.318463     1.566548
 C     1.992674     2.839443     1.166523
 C     2.880584     3.848542     0.778260
 H     3.926864     3.606693     0.579709
 C     0.665574     3.188629     1.437296
 H    -0.030668     2.412966     1.764975
 C     2.436933     5.161670     0.641955
 H     3.138274     5.942819     0.339137
 C     0.196779     4.496512     1.288826
 C    -1.252351     4.811798     1.518423
 H    -1.843944     4.583069     0.616247
 H    -1.669605     4.209052     2.339125
 H    -1.405537     5.873966     1.756639
 C     1.103397     5.482733     0.883971
 H     0.760738     6.513939     0.763641
