  60
scf done:    -3259.298519
 C    -0.800865    -3.683302    -0.382720
 H    -1.227168    -3.983849    -1.344841
 H     0.224730    -4.027616    -0.229359
 C    -1.646502    -3.430484     0.715393
 H    -2.728030    -3.554876     0.599360
 H    -1.284833    -3.599735     1.733806
 H     0.149381    -1.901383     0.909274
Co    -0.933345    -1.692656    -0.059842
 C     2.204177    -0.365145    -0.231027
 O     1.451348    -2.279642    -1.985426
 O     0.688626     0.146725    -2.259929
 C    -1.391999     1.543837     0.531160
 O    -2.823140    -0.013535     2.030960
 O    -0.288685     0.042220     2.491240
 P    -1.365322    -0.123254     1.262655
 P     0.762949    -1.056161    -1.126261
 C    -2.277958    -1.442303    -1.162559
 O    -3.191889    -1.313743    -1.847351
 C     2.905939     0.751671    -0.700898
 H     2.571166     1.239024    -1.617895
 C     2.630033    -0.967595     0.957353
 H     2.080758    -1.824838     1.354124
 C     3.997881     1.249875     0.004102
 H     4.525263     2.130212    -0.374753
 C     3.726387    -0.469535     1.653567
 H     4.034755    -0.952875     2.584832
 C     4.430614     0.648853     1.191926
 C     5.624004     1.171120     1.936274
 H     5.796948     2.236493     1.727004
 H     5.507698     1.047466     3.022941
 H     6.537262     0.626451     1.643092
 C     2.625897    -2.089108    -2.740644
 H     2.506168    -1.274208    -3.473134
 H     3.489691    -1.857142    -2.094488
 H     2.823968    -3.027473    -3.277085
 C    -0.501299     0.453063    -2.945105
 H    -0.930581    -0.430160    -3.444964
 H    -1.254478     0.885906    -2.267203
 H    -0.250166     1.201631    -3.709731
 C    -2.576235     2.104075     0.042962
 H    -3.525957     1.599296     0.231801
 C    -0.180525     2.200387     0.285603
 H     0.754986     1.768415     0.649086
 C    -2.544222     3.293379    -0.680763
 H    -3.478529     3.716296    -1.060899
 C    -0.157964     3.389601    -0.434472
 H     0.799614     3.884337    -0.620535
 C    -1.337387     3.956334    -0.934450
 C    -1.309080     5.249977    -1.694279
 H    -2.171822     5.340874    -2.369690
 H    -1.339791     6.110901    -1.005400
 H    -0.391356     5.345942    -2.292891
 C    -3.503037    -1.179267     2.440196
 H    -3.856187    -1.761410     1.575220
 H    -2.868175    -1.830762     3.062279
 H    -4.368867    -0.855219     3.034537
 C    -0.444472     1.043062     3.474875
 H    -0.381786     2.054010     3.039199
 H    -1.411347     0.946101     3.993101
 H     0.372182     0.913967     4.198134
