  96
scf done:    -3882.052786
 C    -0.574017    -1.291719     3.336540
 H    -0.954440    -0.637738     4.128723
 H    -1.232103    -2.135125     3.107610
 C     0.818531    -1.398983     3.137884
 H     1.508948    -0.821618     3.761487
 H     1.248163    -2.337763     2.774101
 H    -0.259479    -1.603775     0.991319
Co    -0.026753    -0.303994     1.662345
 C    -1.772622    -0.532125    -1.234536
 C    -3.285250    -0.933588     1.169674
 C    -2.511641     1.684001     0.374805
 C     1.746602     1.315100    -0.758851
 C     3.324899     0.056277     1.258925
 C     2.097907    -1.529719    -0.759874
 P     1.714236    -0.132561     0.376754
 P    -1.827679    -0.017622     0.530863
 C     0.017632     1.254602     2.461108
 O     0.000039     2.261665     3.017548
 C    -2.271337     0.266121    -2.268748
 H    -2.771493     1.208563    -2.038293
 C    -1.141026    -1.736253    -1.573214
 H    -0.743060    -2.371029    -0.780555
 C    -2.102747    -0.112897    -3.600262
 H    -2.485016     0.536587    -4.392956
 C    -0.976582    -2.110583    -2.900422
 H    -0.450676    -3.041651    -3.129946
 C    -1.440827    -1.296133    -3.942523
 C    -1.224117    -1.690555    -5.373560
 H    -1.723715    -2.645331    -5.603192
 H    -1.611979    -0.931200    -6.066760
 H    -0.152111    -1.829776    -5.585204
 C    -3.670055    -0.705396     2.497977
 H    -3.100321    -0.005486     3.113103
 C    -4.017230    -1.832100     0.392844
 H    -3.728518    -2.004548    -0.647153
 C    -4.776366    -1.362474     3.021977
 H    -5.081135    -1.175370     4.054588
 C    -5.124509    -2.516077     0.914693
 C    -5.873701    -3.502013     0.065391
 H    -6.856197    -3.742352     0.495820
 H    -6.030323    -3.116398    -0.953327
 H    -5.312730    -4.446552    -0.029655
 C    -5.496104    -2.265212     2.237473
 H    -6.361697    -2.782620     2.660563
 C    -3.882374     1.958357     0.415294
 H    -4.599458     1.149716     0.570208
 C    -1.609609     2.734273     0.168116
 H    -0.538386     2.520770     0.126238
 C    -4.330843     3.268393     0.253337
 H    -5.402253     3.481901     0.285880
 C    -2.045611     4.051893     0.006930
 C    -1.060852     5.170397    -0.168660
 H    -0.931215     5.726733     0.774409
 H    -0.075191     4.787073    -0.464873
 H    -1.399839     5.891759    -0.927865
 C    -3.422723     4.303729     0.051480
 H    -3.785924     5.328438    -0.069802
 C     2.423533     2.495066    -0.435281
 H     3.047247     2.539907     0.459943
 C     0.969678     1.297089    -1.926918
 H     0.433914     0.391324    -2.213413
 C     2.321892     3.620453    -1.252415
 H     2.866415     4.528723    -0.978768
 C     0.874458     2.421944    -2.736798
 H     0.258374     2.373703    -3.639181
 C     1.544357     3.609339    -2.414574
 C     1.403275     4.831540    -3.272905
 H     1.414322     4.576263    -4.343039
 H     0.446670     5.342533    -3.071459
 H     2.209449     5.554454    -3.083539
 C     3.376492     0.842490     2.416571
 H     2.471761     1.318280     2.797077
 C     4.499756    -0.550825     0.804015
 H     4.473325    -1.172408    -0.093730
 C     4.585952     1.030940     3.080249
 H     4.619452     1.656124     3.975859
 C     5.718290    -0.386991     1.472101
 C     6.955698    -1.084617     0.985700
 H     7.096191    -2.045435     1.508719
 H     6.897286    -1.303642    -0.090098
 H     7.857297    -0.480850     1.166024
 C     5.747270     0.419367     2.614609
 H     6.690919     0.566281     3.147653
 C     2.693780    -1.352903    -2.014056
 H     2.940891    -0.350778    -2.368646
 C     1.811644    -2.825976    -0.324115
 H     1.335018    -2.956305     0.651231
 C     2.960968    -2.458456    -2.818064
 H     3.411873    -2.314796    -3.803221
 C     2.085141    -3.947508    -1.113640
 C     1.779398    -5.327105    -0.606463
 H     2.552734    -5.665584     0.102759
 H     0.818343    -5.353783    -0.071529
 H     1.738241    -6.059829    -1.424902
 C     2.654916    -3.743788    -2.375539
 H     2.862553    -4.604401    -3.017791
