 100
scf done:    -4182.836521
 C    -0.534644     0.531307    -3.549880
 H    -1.511794     0.204054    -3.918230
 H    -0.391898     1.615049    -3.587482
 C     0.574189    -0.328215    -3.632138
 H     0.451567    -1.329884    -4.055886
 H     1.584690     0.071756    -3.744870
 H     0.591422     1.090921    -1.517766
Co    -0.081930    -0.211785    -1.707000
 C    -1.415033     2.383941     0.076275
 O    -3.145966     0.935912    -1.136185
 O    -1.878304    -0.232211     0.800586
 C     1.656922    -2.355057     0.181171
 O     3.117659    -0.723754    -1.213090
 O     1.834509     0.296796     0.755517
 P     1.588860    -0.699696    -0.563311
 P    -1.598474     0.691313    -0.564756
 C    -0.748252    -1.843362    -1.768123
 O    -1.122697    -2.925683    -1.791796
 C    -0.280373     2.665167     0.847546
 H     0.463272     1.883982     1.020034
 C    -2.357223     3.391977    -0.141840
 H    -3.244981     3.178173    -0.736739
 C    -0.108823     3.926061     1.405173
 H     0.776254     4.123662     2.016405
 C    -2.167383     4.656726     0.410748
 H    -2.913687     5.435952     0.232462
 C    -1.046488     4.947007     1.195014
 C    -0.833591     6.314323     1.773780
 H    -0.093867     6.878571     1.181727
 H    -1.764062     6.899164     1.784187
 H    -0.448842     6.259324     2.803107
 C    -4.068887     0.001302    -1.521738
 C    -3.772699    -0.981209    -2.463625
 H    -2.783218    -0.996555    -2.914108
 C    -5.353445     0.106435    -0.959585
 C    -5.690234     1.220761    -0.018974
 H    -4.977533     1.278801     0.815338
 H    -5.656503     2.193176    -0.536557
 H    -6.698740     1.090373     0.395341
 C    -4.736407    -1.923260    -2.816904
 H    -4.488612    -2.699515    -3.544082
 C    -6.300066    -0.851069    -1.333279
 H    -7.300131    -0.791734    -0.895244
 C    -6.001762    -1.867228    -2.240533
 H    -6.762761    -2.604709    -2.504849
 C    -2.890865    -0.115231     1.720501
 C    -3.004658     1.007218     2.540525
 H    -2.287846     1.821488     2.440010
 C    -3.766366    -1.207595     1.845147
 C    -3.593889    -2.427917     0.994772
 H    -4.301073    -3.213418     1.292806
 H    -3.761976    -2.206650    -0.069993
 H    -2.572423    -2.829916     1.070868
 C    -4.034774     1.075281     3.476972
 H    -4.126515     1.958606     4.113001
 C    -4.788291    -1.108700     2.793565
 H    -5.484099    -1.945446     2.899618
 C    -4.935030     0.020136     3.598446
 H    -5.746318     0.068325     4.328243
 C     2.702049    -3.260844     0.000163
 H     3.549433    -2.984176    -0.627588
 C     0.570395    -2.710118     0.992562
 H    -0.255249    -2.004429     1.131098
 C     2.664773    -4.500894     0.634670
 H     3.490253    -5.203131     0.488674
 C     0.550644    -3.942740     1.631597
 H    -0.295987    -4.201658     2.273815
 C     1.596200    -4.862493     1.461676
 C     1.547770    -6.206142     2.126610
 H     1.168131    -6.131545     3.156557
 H     0.873149    -6.887078     1.581413
 H     2.539635    -6.678513     2.157837
 C     3.892721     0.329550    -1.620257
 C     3.384191     1.412713    -2.334397
 H     2.314581     1.464742    -2.532773
 C     5.258421     0.248053    -1.296745
 C     5.778511    -0.910200    -0.504563
 H     5.219352    -1.027430     0.436534
 H     5.671898    -1.854088    -1.062858
 H     6.841150    -0.774050    -0.263175
 C     4.239271     2.429499    -2.755066
 H     3.832097     3.275292    -3.313630
 C     6.090523     1.283219    -1.728854
 H     7.154664     1.233955    -1.482333
 C     5.596833     2.366798    -2.455914
 H     6.272753     3.160297    -2.782101
 C     2.935627     0.285141     1.585107
 C     3.176808    -0.798636     2.434692
 H     2.486575    -1.640264     2.438694
 C     3.767282     1.416609     1.601917
 C     3.489512     2.633114     0.772018
 H     4.314766     2.825383     0.069924
 H     2.569804     2.528919     0.186965
 H     3.390659     3.520760     1.416946
 C     4.288506    -0.794868     3.271085
 H     4.472291    -1.649839     3.925576
 C     4.878638     1.388851     2.453786
 H     5.541671     2.258536     2.468814
 C     5.152982     0.298272     3.272284
 H     6.031259     0.308159     3.921712
