  88
scf done:    -4422.469385
 C     0.278420     3.084136    -1.753936
 H     0.850527     3.660952    -1.025074
 H     0.758180     2.984907    -2.732765
 C    -1.118188     3.014635    -1.638385
 H    -1.628193     3.532220    -0.820820
 H    -1.740495     2.867831    -2.527025
 H    -0.170163     1.901118     0.342850
Co    -0.284186     1.273235    -0.999461
 C    -3.530531     1.371917    -0.126228
 O    -2.386004    -1.019988    -0.623177
 O    -1.968057     0.256148     1.608632
 C     1.684271    -1.313319     0.087544
 O     2.590605     0.362968    -1.797488
 O     2.528968     1.065533     0.690885
 P     1.546226     0.403314    -0.477337
 P    -1.951224     0.485123    -0.040904
 C    -0.458257     0.429607    -2.534195
 O    -0.593440    -0.138266    -3.520438
 C    -4.037561     2.112129     0.942328
 H    -3.511371     2.109667     1.898633
 C    -4.213888     1.379894    -1.349100
 H    -3.823437     0.810014    -2.196975
 C    -5.216734     2.839628     0.790183
 H    -5.605215     3.414228     1.635449
 C    -5.392258     2.100046    -1.487664
 H    -5.920914     2.087069    -2.444798
 C    -5.915314     2.845012    -0.420477
 C    -7.189769     3.618755    -0.584776
 H    -8.032674     2.947762    -0.815277
 H    -7.443318     4.178560     0.325941
 H    -7.113792     4.337756    -1.415618
 C    -3.551140    -1.709719    -0.431536
 C    -4.315006    -1.625348     0.735359
 H    -4.002478    -0.968455     1.546623
 C    -3.950715    -2.551133    -1.472104
 H    -3.336561    -2.593695    -2.373651
 C    -5.480055    -2.380787     0.851680
 H    -6.096151    -2.328906     1.751082
 C    -5.110163    -3.310091    -1.353736
 H    -5.440710    -3.973466    -2.154952
 C    -5.864899    -3.213756    -0.190218
 F    -6.979630    -3.936335    -0.073528
 C    -0.936553    -0.356113     2.273744
 C    -0.907509    -1.748228     2.366905
 H    -1.682515    -2.336001     1.872582
 C     0.042222     0.416257     2.894601
 H    -0.005813     1.502462     2.807438
 C     0.109826    -2.372813     3.078090
 H     0.165694    -3.459252     3.155197
 C     1.067491    -0.207093     3.601060
 H     1.860964     0.364513     4.085326
 C     1.091846    -1.592993     3.675618
 F     2.090566    -2.193235     4.324733
 C     0.764077    -2.235709    -0.416626
 H    -0.086889    -1.893118    -1.010116
 C     2.738919    -1.769532     0.888125
 H     3.451087    -1.053366     1.299439
 C     0.914061    -3.593963    -0.148346
 H     0.185277    -4.303516    -0.549419
 C     2.875898    -3.124968     1.156614
 H     3.699708    -3.464624     1.789900
 C     1.971857    -4.061904     0.637324
 C     2.136644    -5.522437     0.935814
 H     2.110437    -5.710551     2.021139
 H     1.345857    -6.124274     0.467111
 H     3.107583    -5.892916     0.570612
 C     3.687535    -0.457972    -1.847568
 C     4.881512    -0.099671    -1.221010
 H     4.946539     0.844759    -0.678957
 C     3.591201    -1.666139    -2.539134
 H     2.644240    -1.924874    -3.015605
 C     5.978680    -0.956291    -1.278276
 H     6.923904    -0.702040    -0.795464
 C     4.683082    -2.525323    -2.597409
 H     4.630941    -3.478626    -3.126120
 C     5.864150    -2.160487    -1.961058
 F     6.911327    -2.984788    -2.009570
 C     2.819015     2.396949     0.780447
 C     3.288690     3.128883    -0.313631
 H     3.378385     2.646500    -1.287720
 C     2.686340     3.011298     2.026136
 H     2.327335     2.420080     2.868768
 C     3.613824     4.474153    -0.159875
 H     3.975138     5.067367    -1.001694
 C     3.016148     4.354076     2.184464
 H     2.920368     4.853807     3.149955
 C     3.474539     5.072058     1.086326
 F     3.788814     6.358710     1.233178
