  90
scf done:    -4571.079651
 C    -2.073423     1.959535    -1.845966
 H    -2.665804     1.635428    -2.707915
 H    -2.669373     2.186838    -0.956983
 C    -0.839292     2.606847    -2.049653
 H    -0.488226     2.791369    -3.069496
 H    -0.483527     3.337973    -1.317835
 H    -0.535401     1.291918    -0.055731
Co    -0.542168     0.697807    -1.411784
 C    -2.924274     0.247842     0.902261
 O    -2.478165    -1.857194    -0.515972
 O    -0.621899    -1.118485     1.103939
 C     2.276888    -0.986975    -0.482981
 O     2.631988     0.925788    -2.169778
 O     2.137745     1.590309     0.167280
 P     1.532734     0.596915    -1.005313
 P    -1.597340    -0.529222    -0.085949
 C    -0.507875    -0.068983    -2.984430
 O    -0.478564    -0.530629    -4.037076
 C    -2.582064     1.271952     1.794299
 H    -1.536218     1.571531     1.900654
 C    -4.267221    -0.117295     0.776813
 H    -4.539548    -0.922864     0.093599
 C    -3.554494     1.919275     2.547694
 H    -3.288578     2.715034     3.245177
 C    -5.253265     0.528227     1.519380
 H    -6.302996     0.247192     1.420378
 C    -4.890554     1.543462     2.401691
Cl    -6.109387     2.349715     3.328915
 C    -2.140662    -2.718152    -1.585711
 H    -1.325089    -2.280936    -2.186533
 H    -1.770605    -3.667574    -1.162436
 C    -3.358162    -2.952990    -2.454773
 H    -3.110988    -3.737458    -3.191094
 H    -4.163314    -3.365986    -1.821640
 C    -3.847391    -1.700814    -3.170355
 H    -3.058322    -1.345876    -3.854227
 H    -3.986100    -0.895434    -2.429566
 C    -5.138279    -1.919263    -3.941461
 H    -5.020598    -2.701390    -4.708829
 H    -5.955541    -2.235944    -3.273269
 H    -5.463910    -1.000569    -4.452057
 C    -1.119689    -1.897585     2.184264
 H    -1.496917    -1.217877     2.969662
 H    -1.967822    -2.512846     1.841300
 C    -0.009316    -2.771952     2.723888
 H    -0.422064    -3.349775     3.569790
 H     0.278125    -3.507277     1.953047
 C     1.225232    -2.000911     3.169214
 H     0.922561    -1.208479     3.877972
 H     1.648702    -1.483772     2.293853
 C     2.285947    -2.883825     3.805072
 H     1.907351    -3.379300     4.713962
 H     2.619246    -3.672474     3.112769
 H     3.175261    -2.301047     4.089905
 C     1.620525    -2.192004    -0.729296
 H     0.646566    -2.177842    -1.220188
 C     3.521338    -1.005420     0.157110
 H     4.040361    -0.063583     0.346874
 C     2.181121    -3.403904    -0.339261
 H     1.668658    -4.349153    -0.524946
 C     4.091978    -2.207134     0.562521
 H     5.055690    -2.230407     1.073649
 C     3.410941    -3.399394     0.315411
Cl     4.094851    -4.898254     0.850983
 C     2.455193     1.969263    -3.116890
 H     3.199209     1.769703    -3.903806
 H     1.454741     1.890433    -3.572772
 C     2.663785     3.346402    -2.520213
 H     2.498925     4.089625    -3.320708
 H     1.882179     3.528920    -1.763828
 C     4.034251     3.543829    -1.890209
 H     4.815189     3.386850    -2.655422
 H     4.182612     2.756301    -1.134400
 C     4.201695     4.912417    -1.251684
 H     4.081216     5.721345    -1.990560
 H     3.450586     5.074066    -0.461878
 H     5.195255     5.027533    -0.791995
 C     1.527953     1.654998     1.446675
 H     0.765622     2.456314     1.435803
 H     1.010809     0.708729     1.679144
 C     2.584453     1.945512     2.490242
 H     2.085685     1.979294     3.475052
 H     3.285034     1.093007     2.531277
 C     3.352240     3.236150     2.246049
 H     2.639709     4.080075     2.219134
 H     3.802371     3.192816     1.241627
 C     4.427174     3.501158     3.286593
 H     3.999059     3.579513     4.299177
 H     5.170248     2.687563     3.307658
 H     4.967352     4.437542     3.080584
