  90
scf done:    -5119.192616
 C     0.666989    -3.192265    -2.452814
 H     1.107184    -3.026771    -3.442359
 H     1.275572    -3.820343    -1.795141
 C    -0.737155    -3.208939    -2.300383
 H    -1.380017    -3.054573    -3.174404
 H    -1.188125    -3.831557    -1.524475
 H     0.220114    -2.251417    -0.272319
Co     0.040763    -1.500652    -1.542878
 C     1.620702    -0.073862     1.010000
 C     3.089768    -2.142584    -0.323650
 C     3.084530     0.422809    -1.473109
 C    -1.414820     0.997951     0.249832
 C    -3.180600    -0.437045    -1.454235
 C    -2.256575    -1.633415     1.026754
 P    -1.622233    -0.689367    -0.443347
 P     1.873893    -0.765680    -0.675302
 C    -0.315243    -0.630776    -3.015556
 O    -0.675522    -0.135781    -3.992249
 C     1.769723     1.282422     1.310275
 H     2.114887     1.977699     0.548903
 C     1.145506    -0.920359     2.020882
 H     1.015679    -1.985158     1.815135
 C     1.433262     1.790200     2.562410
 H     1.517616     2.858048     2.769760
 C     0.816863    -0.435563     3.281986
 H     0.443945    -1.102793     4.061182
 C     0.947294     0.928817     3.540602
Cl     0.459324     1.561764     5.075855
 H     2.554726    -2.840229     0.337983
 H     3.207412    -2.665997    -1.284026
 C     4.422830    -1.746139     0.232129
 C     5.546651    -1.680408    -0.602477
 H     5.449886    -1.959356    -1.655327
 C     4.586824    -1.400353     1.581314
 H     3.733876    -1.448756     2.260230
 C     6.788434    -1.271776    -0.123705
 H     7.664926    -1.222077    -0.772145
 C     5.820640    -0.989794     2.077743
 H     5.951965    -0.721138     3.127453
 C     6.908546    -0.925656     1.215933
 F     8.091436    -0.532192     1.685309
 H     3.869019     0.641642    -0.733651
 H     3.555307    -0.202449    -2.249855
 C     2.571237     1.684609    -2.097671
 C     1.843436     1.645949    -3.292628
 H     1.684035     0.690625    -3.791586
 C     2.832591     2.940485    -1.534089
 H     3.453338     3.013159    -0.637321
 C     1.324090     2.801247    -3.868824
 H     0.740218     2.763179    -4.790009
 C     2.335186     4.111078    -2.101239
 H     2.535366     5.089565    -1.660857
 C     1.566367     4.024082    -3.255085
 F     1.064548     5.136319    -3.788812
 C    -1.860506     1.389587     1.515626
 H    -2.350957     0.678367     2.181125
 C    -0.801013     1.955566    -0.568930
 H    -0.423363     1.671992    -1.554506
 C    -1.683550     2.695281     1.966742
 H    -2.002440     2.986921     2.968416
 C    -0.643735     3.270116    -0.145366
 H    -0.160796     4.007487    -0.787303
 C    -1.073463     3.627106     1.131982
Cl    -0.802583     5.240282     1.702934
 H    -2.842329     0.049537    -2.381037
 H    -3.515532    -1.446608    -1.738386
 C    -4.260334     0.364533    -0.796831
 C    -5.279703    -0.234804    -0.046056
 H    -5.341291    -1.323280     0.017403
 C    -4.247712     1.765181    -0.878723
 H    -3.470468     2.261382    -1.463711
 C    -6.240601     0.525492     0.617781
 H    -7.037471     0.058940     1.199509
 C    -5.197191     2.541245    -0.223920
 H    -5.183996     3.630794    -0.284798
 C    -6.181897     1.909324     0.525984
 F    -7.093141     2.645025     1.160564
 H    -1.543688    -1.418091     1.835601
 H    -3.228686    -1.206163     1.318401
 C    -2.354767    -3.112647     0.807629
 C    -3.449181    -3.688366     0.150670
 H    -4.276817    -3.058972    -0.180088
 C    -1.326385    -3.964904     1.229275
 H    -0.470086    -3.547706     1.761771
 C    -3.512138    -5.056282    -0.101001
 H    -4.363382    -5.504728    -0.615865
 C    -1.367931    -5.334393     0.986739
 H    -0.565452    -5.998470     1.312217
 C    -2.462257    -5.864512     0.314697
 F    -2.511104    -7.173305     0.076933
