  54
scf done:    -4099.669318
 C     0.132582    -3.832459     0.925843
 H     0.707245    -4.080505     1.823549
 H    -0.947837    -3.933527     1.054669
 C     0.721200    -3.965203    -0.347040
 H     1.748493    -4.333961    -0.428993
 H     0.097357    -4.194613    -1.215990
 H    -0.720893    -2.080187    -0.466731
Co     0.597342    -2.007552     0.188745
 C    -2.041003     0.060557     0.667375
 O    -1.346579    -1.665870     2.612715
 O    -0.038467     0.507650     2.232110
 C     1.693784     0.894284    -1.007760
 O     2.230193    -1.164888    -2.517320
 O    -0.169225    -0.222771    -2.401869
 P     1.054421    -0.746619    -1.444170
 P    -0.614428    -0.807616     1.417187
 C     2.181449    -1.947433     0.942737
 O     3.229629    -1.951587     1.413159
 C    -2.213603     1.444750     0.759085
 H    -1.479713     2.034366     1.310335
 C    -2.996283    -0.696341    -0.021046
 H    -2.877706    -1.780895    -0.093235
 C    -3.302129     2.068153     0.153543
 H    -3.434955     3.149608     0.215071
 C    -4.094097    -0.089465    -0.620589
 H    -4.840475    -0.678312    -1.156171
 C    -4.234930     1.296440    -0.536531
Cl    -5.587431     2.063552    -1.296320
 C    -2.238048    -1.054219     3.520674
 H    -1.768958    -0.195631     4.026950
 H    -3.154078    -0.706211     3.013868
 H    -2.509727    -1.811095     4.269014
 C     1.295601     0.571314     2.682627
 H     1.572145    -0.313188     3.278623
 H     1.996278     0.672510     1.839308
 H     1.380157     1.464497     3.316749
 C     3.050020     1.042938    -0.697690
 H     3.735112     0.204682    -0.842949
 C     0.829389     1.978905    -0.835510
 H    -0.225122     1.871137    -1.094301
 C     3.537679     2.250705    -0.208624
 H     4.594671     2.373580     0.032502
 C     1.304710     3.190683    -0.343426
 H     0.635040     4.041407    -0.206574
 C     2.656411     3.316563    -0.025558
Cl     3.250731     4.817283     0.601656
 C     2.613086    -2.506476    -2.719670
 H     3.060312    -2.941418    -1.812448
 H     1.766158    -3.141302    -3.025381
 H     3.362578    -2.505603    -3.523215
 C    -1.063996    -1.116605    -3.015602
 H    -0.630297    -1.531882    -3.940741
 H    -1.329714    -1.945828    -2.336985
 H    -1.975656    -0.557238    -3.266397
