  84
scf done:    -3573.588914
 C     0.914993    -3.434611    -0.479299
 H     1.484311    -3.723385    -1.369346
 H     1.399498    -3.707890     0.463428
 C    -0.494580    -3.381513    -0.540928
 H    -1.016977    -3.598405    -1.477321
 H    -1.079660    -3.618803     0.351768
 H     0.330356    -1.593028     0.956112
Co     0.271798    -1.511389    -0.520054
 C     1.396681     0.864216     1.528100
 O     3.295208    -0.496917     0.282960
 O     1.870847     1.095673    -1.138511
 C    -1.768714     1.258812    -0.569995
 O    -2.730218    -1.166976    -1.261326
 O    -2.323583    -0.615037     1.229205
 P    -1.601318    -0.548722    -0.239613
 P     1.723918    -0.086568    -0.000334
 C     0.475303    -1.351654    -2.254648
 O     0.671580    -1.241856    -3.381218
 C     0.740296     2.092731     1.391369
 H     0.532514     2.475115     0.391944
 C     1.639715     0.340422     2.816923
 C     2.306108    -0.984790     3.041695
 H     3.377090    -0.927276     2.800843
 H     1.875778    -1.763804     2.393193
 H     2.197833    -1.302076     4.088113
 C     0.339354     2.824733     2.505782
 H    -0.176425     3.778078     2.370279
 C     1.235616     1.097182     3.922823
 H     1.425272     0.702019     4.924746
 C     0.594280     2.325731     3.779242
 H     0.287562     2.886638     4.665533
 C     3.883826    -1.670799    -0.288588
 H     3.155797    -2.490516    -0.186873
 C     5.122943    -1.977369     0.524854
 H     4.868023    -2.145033     1.580645
 H     5.835968    -1.140202     0.470555
 H     5.619105    -2.881482     0.142241
 C     4.185471    -1.474072    -1.761962
 H     3.271543    -1.247164    -2.328460
 H     4.903960    -0.653164    -1.911653
 H     4.621483    -2.391473    -2.185296
 C     3.030867     1.885464    -1.420082
 H     3.912748     1.346920    -1.037478
 C     2.958967     3.243487    -0.747892
 H     2.956875     3.152585     0.346454
 H     2.047990     3.780011    -1.055665
 H     3.831014     3.848973    -1.038935
 C     3.113965     1.992146    -2.929884
 H     3.145142     0.994429    -3.389238
 H     2.229056     2.517848    -3.320726
 H     4.012711     2.549417    -3.233875
 C    -1.141027     1.630431    -1.768809
 H    -0.662765     0.864021    -2.379931
 C    -2.376959     2.258006     0.226131
 C    -3.078667     2.012836     1.530760
 H    -2.372105     1.661044     2.295076
 H    -3.853640     1.240083     1.448490
 H    -3.541535     2.943810     1.886755
 C    -1.088854     2.951187    -2.197795
 H    -0.587488     3.201474    -3.135260
 C    -2.302991     3.585132    -0.223275
 H    -2.765448     4.364171     0.388995
 C    -1.667743     3.940457    -1.408819
 H    -1.631042     4.988789    -1.715157
 C    -4.032833    -0.602289    -1.440408
 H    -4.149000     0.262019    -0.762332
 C    -5.064161    -1.652799    -1.082218
 H    -4.965523    -1.951410    -0.030196
 H    -4.929201    -2.546566    -1.710524
 H    -6.082442    -1.266635    -1.240547
 C    -4.149329    -0.121522    -2.872954
 H    -3.402509     0.657286    -3.082007
 H    -3.981345    -0.959321    -3.566959
 H    -5.149319     0.296499    -3.063740
 C    -2.090988    -1.629171     2.204852
 H    -1.119380    -2.100083     1.972232
 C    -3.188914    -2.671294     2.131474
 H    -3.229506    -3.123237     1.130241
 H    -4.168803    -2.217188     2.347561
 H    -3.010859    -3.471843     2.865197
 C    -1.992259    -0.952214     3.555567
 H    -1.179387    -0.212025     3.553252
 H    -2.934253    -0.440312     3.806814
 H    -1.783444    -1.694428     4.340730
