  90
scf done:    -4722.423628
 C     0.497337     0.469418     3.734862
 H     0.911300    -0.364690     4.311702
 H     1.134161     1.358868     3.726835
 C    -0.901602     0.592234     3.602754
 H    -1.562681    -0.145919     4.068333
 H    -1.356651     1.583607     3.512731
 H     0.091218     1.400281     1.577968
Co    -0.075851    -0.041367     1.867558
 C     1.603588     1.079022    -0.848494
 C     3.158904     0.789684     1.543245
 C     2.446395    -1.485522     0.003590
 C    -1.699181    -1.065655    -0.865498
 C    -3.428737    -0.435531     1.312831
 C    -2.248430     1.680994    -0.187574
 P    -1.816617     0.069784     0.577994
 P     1.715088     0.057398     0.683006
 C    -0.066105    -1.762176     2.199990
 O    -0.017202    -2.885808     2.441635
 C     2.080975     0.637527    -2.088634
 H     2.600681    -0.319328    -2.164528
 C     0.949480     2.315789    -0.790359
 H     0.572942     2.676474     0.167603
 C     1.870900     1.386782    -3.244742
 H     2.227962     1.030985    -4.212701
 C     0.733948     3.076990    -1.933012
 H     0.196309     4.024447    -1.875802
 C     1.182036     2.596066    -3.162259
Cl     0.872176     3.511603    -4.599990
 C     3.589218     0.179389     2.729831
 H     3.057718    -0.698296     3.105619
 C     3.849901     1.911034     1.081676
 H     3.543654     2.398798     0.153857
 C     4.683526     0.675093     3.425337
 H     5.005923     0.177640     4.344568
 C     4.940351     2.412851     1.793528
 H     5.466531     3.293701     1.414946
 C     5.377230     1.807877     2.974095
 C     6.538434     2.354699     3.751153
 H     7.089208     3.111797     3.175586
 H     6.198611     2.828735     4.686717
 H     7.244076     1.557809     4.032009
 C     3.825393    -1.673537    -0.144170
 H     4.520893    -0.912392     0.216896
 C     1.583240    -2.478579    -0.473430
 H     0.504733    -2.355849    -0.367554
 C     4.319739    -2.820537    -0.761329
 H     5.400809    -2.947656    -0.868270
 C     2.081725    -3.613562    -1.102462
 H     1.383021    -4.359602    -1.490733
 C     3.459609    -3.807087    -1.257419
 C     3.989540    -5.047280    -1.914168
 H     3.363168    -5.344325    -2.768506
 H     5.019714    -4.908319    -2.271712
 H     3.996073    -5.893391    -1.206897
 C    -2.127010    -2.394374    -0.748806
 H    -2.694913    -2.710362     0.129137
 C    -0.981022    -0.695484    -2.011066
 H    -0.630765     0.330249    -2.131384
 C    -1.821328    -3.336092    -1.727907
 H    -2.143780    -4.373316    -1.623699
 C    -0.674790    -1.624483    -2.999725
 H    -0.097492    -1.329817    -3.877340
 C    -1.082315    -2.947561    -2.843457
Cl    -0.638950    -4.129696    -4.031505
 C    -3.450774    -1.398972     2.327660
 H    -2.513977    -1.820127     2.695123
 C    -4.649369     0.092363     0.875717
 H    -4.666219     0.853957     0.093605
 C    -4.655651    -1.836692     2.870646
 H    -4.643474    -2.598258     3.655354
 C    -5.849749    -0.339025     1.431759
 H    -6.789609     0.090480     1.073260
 C    -5.877962    -1.311395     2.438288
 C    -7.173015    -1.748621     3.056399
 H    -7.999388    -1.709742     2.331819
 H    -7.107008    -2.773102     3.450008
 H    -7.446200    -1.091047     3.898726
 C    -2.798526     1.806518    -1.469320
 H    -3.005810     0.916154    -2.066185
 C    -2.036478     2.845426     0.557025
 H    -1.611023     2.764387     1.560144
 C    -3.073081     3.060707    -2.005500
 H    -3.479985     3.131997    -3.018096
 C    -2.328272     4.097383     0.023242
 H    -2.147418     4.992728     0.624523
 C    -2.831504     4.230885    -1.275938
 C    -3.082429     5.578754    -1.884502
 H    -3.055927     6.376267    -1.128966
 H    -2.318169     5.811575    -2.644718
 H    -4.059350     5.615899    -2.389858
