  94
scf done:    -5023.218209
 C    -0.040347    -1.099085    -3.583788
 H    -0.248878    -2.157450    -3.408844
 H    -0.695190    -0.629647    -4.324652
 C     1.256701    -0.592026    -3.374525
 H     2.056365    -1.262561    -3.043667
 H     1.602768     0.277795    -3.942250
 H     0.386987    -1.368399    -1.241677
Co     0.035609    -0.066389    -1.837714
 C     2.876121    -0.629180    -0.097553
 O     2.604717     1.771491    -1.095712
 O     1.095867     1.112479     0.913190
 C    -2.791314     0.645589    -0.082760
 O    -2.637261    -1.755277    -1.086111
 O    -1.040600    -1.173902     0.849701
 P    -1.560880    -0.571536    -0.627639
 P     1.584859     0.549859    -0.586353
 C    -0.634477     1.403175    -2.557097
 O    -1.143506     2.299580    -3.055979
 C     2.459314    -1.815472     0.519990
 H     1.393230    -1.990612     0.691232
 C     4.238388    -0.402582    -0.303849
 H     4.562796     0.524576    -0.778445
 C     3.388972    -2.763669     0.928703
 H     3.072915    -3.686361     1.417790
 C     5.177697    -1.351108     0.093390
 H     6.243997    -1.185364    -0.067901
 C     4.746340    -2.524826     0.707862
Cl     5.909651    -3.705727     1.205885
 C     2.075140     2.865746    -1.728134
 C     1.143215     3.676723    -1.080047
 H     0.848322     3.432576    -0.057308
 C     2.483610     3.149178    -3.029528
 H     3.212987     2.497055    -3.512757
 C     0.574408     4.770742    -1.738629
 C    -0.502367     5.574675    -1.071884
 H    -1.485120     5.102216    -1.240129
 H    -0.347180     5.637043     0.015355
 H    -0.555595     6.596725    -1.472732
 C     1.938387     4.253518    -3.678293
 H     2.249532     4.486558    -4.699384
 C     0.988594     5.052846    -3.044513
 H     0.555305     5.904751    -3.574347
 C     1.932539     1.237384     1.996837
 C     2.926682     2.212886     2.025169
 H     3.057095     2.866767     1.161229
 C     1.744573     0.376478     3.077998
 H     0.963756    -0.383143     3.024247
 C     3.757460     2.344057     3.144242
 C     4.850020     3.373606     3.153519
 H     5.700587     3.047100     2.532453
 H     4.501638     4.333922     2.744786
 H     5.230001     3.550098     4.169512
 C     2.562459     0.511218     4.195002
 H     2.421846    -0.155217     5.049331
 C     3.560186     1.484509     4.229739
 H     4.197709     1.578373     5.112589
 C    -2.315202     1.924569     0.227193
 H    -1.254542     2.152017     0.094401
 C    -4.144691     0.349461     0.104793
 H    -4.514679    -0.648878    -0.133210
 C    -3.173195     2.898054     0.725781
 H    -2.808066     3.895904     0.973543
 C    -5.012790     1.317293     0.599232
 H    -6.070295     1.096496     0.751888
 C    -4.519914     2.584761     0.909195
Cl    -5.596154     3.788863     1.530866
 C    -2.240494    -2.918937    -1.686651
 C    -1.183183    -3.676891    -1.185268
 H    -0.660054    -3.339769    -0.289273
 C    -2.936401    -3.333122    -2.822412
 H    -3.756722    -2.717481    -3.194612
 C    -0.776582    -4.847069    -1.837034
 C     0.385845    -5.630686    -1.299866
 H     0.157626    -6.047937    -0.305782
 H     0.651017    -6.466117    -1.962259
 H     1.274617    -4.989990    -1.186025
 C    -2.547370    -4.505672    -3.460155
 H    -3.081240    -4.835344    -4.354629
 C    -1.470785    -5.253139    -2.980320
 H    -1.164823    -6.163610    -3.501475
 C    -1.889386    -1.299700     1.923325
 C    -2.697277    -2.427454     2.045839
 H    -2.655272    -3.197964     1.273136
 C    -1.921003    -0.287649     2.882731
 H    -1.288024     0.590779     2.751494
 C    -3.560879    -2.564305     3.138946
 C    -4.412354    -3.792754     3.280115
 H    -4.814643    -4.116790     2.308819
 H    -3.825302    -4.633977     3.684745
 H    -5.256779    -3.621603     3.962562
 C    -2.778999    -0.419979     3.969671
 H    -2.819501     0.369682     4.723605
 C    -3.593461    -1.544575     4.096333
 H    -4.268591    -1.632335     4.951515
