  74
scf done:    -4113.154048
 C    -0.760897    -3.888005    -0.270915
 H    -1.362583    -4.284171    -1.096473
 H     0.267295    -4.264729    -0.266202
 C    -1.392176    -3.580959     0.961385
 H    -2.471213    -3.744340     1.065137
 H    -0.839219    -3.717038     1.896403
 H     0.407374    -2.068586     0.679234
Co    -0.878915    -1.898282    -0.013367
 C     1.980400    -0.258995    -0.501532
 C     1.482077    -2.397459    -2.361920
 C     0.088246     0.285721    -2.608463
 C    -1.353910     1.323088     0.597840
 C    -2.855057    -0.398181     2.348457
 C     0.140714    -0.010476     2.694777
 P    -1.210253    -0.308788     1.442650
 P     0.581747    -1.061063    -1.403006
 C    -2.430934    -1.779311    -0.808186
 O    -3.494492    -1.771048    -1.254214
 C     2.265853     1.109261    -0.544335
 H     1.690592     1.776442    -1.185042
 C     2.763257    -1.059429     0.346673
 H     2.559142    -2.130389     0.417707
 C     3.271356     1.669397     0.244417
 H     3.473353     2.741373     0.209523
 C     3.777504    -0.522802     1.129109
 H     4.373546    -1.158190     1.786033
 C     4.020309     0.851078     1.083483
Cl     5.260617     1.537746     2.077077
 H     1.628698    -3.140365    -1.559761
 C     0.554026    -3.029432    -3.393805
 H     0.966468    -3.990769    -3.738738
 H    -0.444183    -3.218171    -2.974060
 H     0.442477    -2.386172    -4.280129
 C     2.848867    -2.068183    -2.950139
 H     3.509191    -1.570696    -2.225677
 H     3.344519    -3.001288    -3.264700
 H     2.775827    -1.425982    -3.837643
 H    -0.097662     1.131075    -1.922284
 C     1.146710     0.702161    -3.626587
 H     0.859839     1.660661    -4.089054
 H     2.147865     0.825426    -3.191863
 H     1.222759    -0.036567    -4.438149
 C    -1.236237     0.006870    -3.309253
 H    -2.050460    -0.179554    -2.601547
 H    -1.519050     0.883284    -3.914160
 H    -1.173915    -0.856743    -3.986831
 C    -2.432352     1.514298    -0.282654
 H    -3.197768     0.742028    -0.386858
 C    -0.399267     2.342348     0.684811
 H     0.457626     2.244436     1.350726
 C    -2.549743     2.662891    -1.054759
 H    -3.389737     2.792534    -1.738906
 C    -0.496415     3.498349    -0.089664
 H     0.261273     4.280757    -0.018449
 C    -1.567922     3.650850    -0.963877
Cl    -1.685351     5.071949    -1.945593
 H    -3.523729    -0.729097     1.534201
 C    -2.845366    -1.504818     3.398244
 H    -3.873683    -1.710786     3.734991
 H    -2.423006    -2.438820     3.006649
 H    -2.266570    -1.208937     4.286362
 C    -3.415985     0.900475     2.917043
 H    -3.432714     1.713177     2.177930
 H    -4.452902     0.733703     3.252015
 H    -2.845507     1.249394     3.788256
 H     0.955857     0.342492     2.037487
 C    -0.141196     1.053107     3.751495
 H     0.794812     1.321003     4.267884
 H    -0.571515     1.975186     3.337213
 H    -0.834306     0.674805     4.517380
 C     0.642531    -1.297437     3.341757
 H     0.852743    -2.065487     2.585172
 H     1.572308    -1.092060     3.895615
 H    -0.085524    -1.710324     4.054927
