  56
scf done:    -2958.552946
 C     4.047320     0.936345     0.378524
 H     4.698263     0.880688    -0.501093
 H     3.979156     1.940018     0.810555
 C     3.919796    -0.195758     1.223111
 H     4.470619    -1.112221     0.982320
 H     3.761059    -0.048645     2.297061
 H     1.787305     0.976268     1.224339
Co     2.254971     0.071811     0.134744
 C    -0.641921     1.715763    -0.258086
 C     1.696238     3.251158    -0.777108
 C     0.832645     1.360011    -2.692035
 C    -0.697740    -1.594719     0.369535
 C     1.585059    -3.050876     1.205784
 C     0.579157    -0.991409     2.875122
 P     0.957404    -1.325736     1.117736
 P     1.074419     1.527749    -0.880604
 C     2.664512    -0.905686    -1.251345
 O     2.885334    -1.530906    -2.194895
 C    -1.771859     1.470740    -1.044063
 H    -1.666584     1.178463    -2.089766
 C    -0.838850     2.075563     1.081487
 H     0.028662     2.257456     1.722201
 C    -3.051681     1.575351    -0.505264
 H    -3.916833     1.366584    -1.141065
 C    -2.119370     2.190065     1.612029
 H    -2.243456     2.479125     2.659797
 C    -3.252095     1.932513     0.830735
 C    -4.631628     1.990294     1.416740
 H    -4.952470     0.991236     1.758422
 H    -4.676399     2.662963     2.285304
 H    -5.371210     2.332624     0.678084
 H     1.794851     3.534620     0.279716
 H     2.696285     3.289886    -1.233084
 H     1.023245     3.956737    -1.286957
 H     0.224028     2.171896    -3.117777
 H     1.826970     1.367944    -3.161891
 H     0.365742     0.390619    -2.917676
 C    -0.754884    -1.916384    -0.994089
 H     0.171037    -2.015388    -1.568080
 C    -1.901850    -1.465052     1.065577
 H    -1.903246    -1.204469     2.125270
 C    -1.974014    -2.111750    -1.632298
 H    -1.989017    -2.370577    -2.695082
 C    -3.122097    -1.649528     0.417853
 H    -4.050663    -1.534217     0.984542
 C    -3.183837    -1.972629    -0.939672
 C    -4.500275    -2.120311    -1.643735
 H    -5.297630    -2.426276    -0.951177
 H    -4.811131    -1.163938    -2.098227
 H    -4.445741    -2.861683    -2.454307
 H     1.744717    -3.426868     0.185081
 H     2.557127    -3.041617     1.720559
 H     0.886763    -3.717769     1.733450
 H     0.001965    -1.801155     3.346278
 H     1.537569    -0.872649     3.399923
 H     0.029020    -0.043680     2.954576
