 116
scf done:    -4640.368167
 C    -0.148817    -2.611577    -1.802789
 H    -1.118922    -2.695164    -2.301749
 H     0.722359    -2.772994    -2.445537
 C    -0.051146    -2.787716    -0.422197
 H    -0.932535    -3.045108     0.168150
 H     0.901794    -3.079891     0.025590
 H    -0.054547    -0.595052     0.594994
Co    -0.018833    -0.780974    -0.873853
 C     2.593058    -1.154766     1.245159
 C     3.243153    -0.537851    -1.525294
 C     2.080326     1.480108     0.330388
 C    -1.700140     1.603185     0.619195
 C    -3.554004     0.230857    -1.088723
 C    -2.556367    -1.227178     1.094250
 P    -1.936646    -0.040865    -0.189684
 P     1.946689    -0.262313    -0.240974
 C     0.230371    -0.001120    -2.401308
 O     0.491956     0.458515    -3.430578
 C     1.727402    -1.422740     2.308171
 H     0.673250    -1.145282     2.228653
 C     3.926253    -1.562377     1.366784
 H     4.622666    -1.360621     0.550938
 C     2.182908    -2.059295     3.461860
 H     1.479135    -2.257697     4.275854
 C     4.375414    -2.205833     2.514223
 H     5.423232    -2.515625     2.579588
 C     3.513259    -2.466079     3.588082
 C     4.000129    -3.186867     4.811406
 H     4.112258    -4.266816     4.617311
 H     4.984399    -2.814437     5.134575
 H     3.299902    -3.074611     5.651583
 C     3.708356     0.484006    -2.374243
 O     3.327538     1.734282    -2.081912
 C     3.279515     2.708905    -3.081974
 H     2.700654     3.539749    -2.659558
 H     4.285549     3.069177    -3.362879
 H     2.761010     2.331690    -3.979240
 C     3.574974    -1.865776    -1.863518
 O     3.028432    -2.819537    -1.084779
 C     3.251682    -4.170391    -1.363538
 H     2.673917    -4.737305    -0.622945
 H     4.319202    -4.436166    -1.269856
 H     2.898938    -4.441667    -2.373603
 C     4.404843    -2.162224    -2.950252
 H     4.666792    -3.192645    -3.186589
 C     4.524346     0.194281    -3.476876
 H     4.882347     0.999978    -4.117381
 C     4.871991    -1.121832    -3.747141
 H     5.512340    -1.346350    -4.603629
 C     3.216142     1.983700     0.868697
 O     4.329181     1.218216     0.860666
 C     5.308545     1.389811     1.849038
 H     5.949103     0.499004     1.811517
 H     5.937648     2.277584     1.663441
 H     4.869089     1.457267     2.858267
 C     0.864344     2.364846     0.150163
 O     0.704149     2.525595    -1.228942
 C    -0.475798     3.072675    -1.746967
 H    -0.220209     3.518562    -2.720070
 H    -0.909180     3.859182    -1.104781
 H    -1.240928     2.298879    -1.913246
 C     0.936457     3.716883     0.918226
 H     0.493396     4.502102     0.284388
 C     3.315444     3.347819     1.389037
 H     4.286385     3.698387     1.742537
 C     2.256590     4.169584     1.412420
 H     2.362012     5.193452     1.785206
 C    -2.682569     2.513286     0.771346
 H    -3.690233     2.292732     0.422051
 C    -0.316431     1.919462     1.104646
 H     0.035311     1.055016     1.677763
 C    -2.481498     3.790972     1.442057
 H    -3.335303     4.473695     1.497891
 C    -0.140355     3.225223     1.927571
 H     0.299881     3.046656     2.923726
 C    -1.322127     4.135427     2.036119
 C    -1.122396     5.415645     2.777622
 H    -0.814569     5.220552     3.819974
 H    -0.314342     6.018594     2.327039
 H    -2.034932     6.028302     2.794501
 C    -4.790899     0.211385    -0.408678
 O    -4.745028     0.269378     0.937501
 C    -5.845983    -0.132813     1.699132
 H    -5.496777    -0.192038     2.738349
 H    -6.678514     0.590696     1.641525
 H    -6.209544    -1.127987     1.390923
 C    -3.598897     0.286317    -2.496291
 O    -2.424001     0.385942    -3.139192
 C    -2.395631     0.390856    -4.539777
 H    -1.338809     0.458566    -4.820138
 H    -2.940927     1.256840    -4.953982
 H    -2.825631    -0.536254    -4.956925
 C    -4.817468     0.240551    -3.190583
 H    -4.836934     0.270591    -4.278585
 C    -6.011031     0.155949    -1.093396
 H    -6.952865     0.130384    -0.546210
 C    -6.008730     0.161397    -2.481789
 H    -6.956593     0.123483    -3.024334
 C    -3.195205    -2.396608     0.642990
 O    -3.316765    -2.514527    -0.694896
 C    -3.939368    -3.635717    -1.246887
 H    -3.919235    -3.495192    -2.335021
 H    -3.402688    -4.567144    -0.995095
 H    -4.990577    -3.722211    -0.919818
 C    -2.334222    -1.098879     2.472359
 O    -1.643826    -0.009539     2.870817
 C    -1.436840     0.232515     4.230162
 H    -0.890431     1.182373     4.295637
 H    -0.830187    -0.559608     4.703893
 H    -2.389803     0.331020     4.778896
 C    -2.799293    -2.062020     3.378390
 H    -2.630899    -1.945748     4.448334
 C    -3.667121    -3.365850     1.536507
 H    -4.167615    -4.262315     1.172589
 C    -3.468867    -3.182651     2.900470
 H    -3.829893    -3.936109     3.604394
