  74
scf done:    -4113.171498
 C     3.436154    -0.515601    -1.957618
 H     4.171666    -1.228772    -1.569112
 H     3.040500    -0.790891    -2.940820
 C     3.552547     0.852546    -1.606300
 H     4.370858     1.166144    -0.948236
 H     3.246715     1.620087    -2.323999
 H     1.239986     0.392626    -1.869388
Co     1.996315     0.004204    -0.658967
 C    -1.076590    -1.070098    -1.449356
 C     0.970807    -3.016552    -1.841709
 C     0.088389    -2.394334     0.841733
 C    -0.106599     1.140482     1.659814
 C     1.837202     3.074889     0.951380
 C    -0.309096     2.477774    -0.897732
 P     0.906864     1.656877     0.211996
 P     0.545548    -1.587348    -0.753050
 C     2.861914    -0.526753     0.766297
 O     3.421942    -0.903024     1.700527
 C    -2.255516    -1.018071    -0.699206
 H    -2.273860    -1.384505     0.326950
 C    -1.111842    -0.583540    -2.765152
 H    -0.200500    -0.589165    -3.368183
 C    -3.422579    -0.460975    -1.221474
 H    -4.331676    -0.404175    -0.620170
 C    -2.269082    -0.037704    -3.306689
 H    -2.281672     0.353416    -4.325200
 C    -3.418636     0.040950    -2.519178
Cl    -4.845028     0.789753    -3.155132
 H     0.087108    -3.667345    -1.952718
 H     1.184145    -2.589587    -2.835474
 C     2.178225    -3.800963    -1.345087
 H     1.941076    -4.272026    -0.375965
 H     3.000273    -3.095729    -1.145736
 C     2.632817    -4.866770    -2.329568
 H     1.831455    -5.595074    -2.533448
 H     2.924736    -4.417961    -3.292421
 H     3.500620    -5.424060    -1.945393
 H     1.047616    -2.596166     1.347193
 H    -0.379223    -1.602301     1.450343
 C    -0.773778    -3.650581     0.828489
 H    -0.215019    -4.477382     0.359796
 H    -1.663344    -3.500790     0.194977
 C    -1.203864    -4.055007     2.231523
 H    -0.329748    -4.250457     2.872967
 H    -1.788582    -3.257508     2.718460
 H    -1.820924    -4.966246     2.220150
 C     0.550415     0.682451     2.813008
 H     1.639079     0.736124     2.882877
 C    -1.501208     1.033492     1.615428
 H    -2.053582     1.377810     0.741100
 C    -0.149055     0.107166     3.867378
 H     0.374795    -0.263747     4.749668
 C    -2.217715     0.453315     2.661062
 H    -3.303847     0.358566     2.608122
 C    -1.535091    -0.023935     3.775972
Cl    -2.411433    -0.804832     5.049881
 H     1.126256     3.709946     1.506925
 H     2.522404     2.639222     1.697662
 C     2.628720     3.897143    -0.056433
 H     1.944973     4.313371    -0.816098
 H     3.315163     3.232926    -0.601236
 C     3.405897     5.028558     0.598366
 H     2.735000     5.724123     1.127824
 H     4.126925     4.640843     1.335717
 H     3.971040     5.610612    -0.145331
 H     0.256813     2.695975    -1.818328
 H    -1.014905     1.684189    -1.194651
 C    -1.045908     3.716551    -0.406365
 H    -0.333151     4.549846    -0.290957
 H    -1.461603     3.542448     0.599827
 C    -2.161388     4.125582    -1.358003
 H    -1.766363     4.341686    -2.363496
 H    -2.907828     3.322144    -1.470148
 H    -2.686615     5.025772    -1.004531
