 108
scf done:    -3739.395239
 C    -0.623429     0.453595    -3.559690
 H    -1.134119    -0.325694    -4.136661
 H    -1.164663     1.405742    -3.547342
 C     0.794830     0.462569    -3.509807
 H     1.354772    -0.311002    -4.048713
 H     1.323091     1.419695    -3.450249
 H     0.001324     1.325118    -1.451199
Co     0.024223    -0.116953    -1.746028
 C    -1.426068     1.486109     0.794841
 C    -3.181199     0.783774    -1.362083
 C    -2.270867    -1.263373     0.673099
 C     1.388367    -1.207884     1.080763
 C     3.256002    -0.991256    -1.084421
 C     2.241374     1.465943     0.373093
 P     1.731566    -0.152468    -0.388472
 P    -1.699899     0.132944    -0.428790
 C     0.075354    -1.810427    -2.174589
 O     0.184693    -2.898910    -2.541595
 C    -1.286839     1.290646     2.170643
 H    -1.400433     0.296565     2.602114
 C    -1.271483     2.795573     0.309946
 H    -1.359877     2.987628    -0.762239
 C    -0.970768     2.351371     3.022716
 H    -0.850590     2.157550     4.092583
 C    -0.984743     3.852955     1.161729
 H    -0.878705     4.859983     0.748323
 C    -0.807572     3.649609     2.538373
 C    -0.429860     4.787185     3.439926
 H     0.609178     5.106863     3.253191
 H    -1.071747     5.665306     3.270843
 H    -0.506331     4.506628     4.499743
 H    -2.684971     1.514367    -2.026131
 C    -4.279809     1.535338    -0.609411
 H    -3.848732     2.300532     0.053259
 H    -4.840295     0.842982     0.037007
 C    -5.247174     2.177876    -1.601284
 H    -6.046466     2.709314    -1.059096
 H    -4.707270     2.943919    -2.187322
 C    -5.845635     1.145976    -2.551903
 H    -6.508818     1.635141    -3.283956
 H    -6.482239     0.452054    -1.972805
 C    -4.761301     0.345793    -3.266135
 H    -4.198454     1.011600    -3.944835
 H    -5.213225    -0.433792    -3.900941
 C    -3.787113    -0.283232    -2.275137
 H    -4.328435    -1.024094    -1.660813
 H    -2.987557    -0.825956    -2.801652
 H    -1.431099    -1.338415     1.390172
 C    -2.340159    -2.620385    -0.031169
 H    -1.402626    -2.822072    -0.562949
 H    -3.134664    -2.607370    -0.795897
 C    -2.612109    -3.744790     0.964791
 H    -2.693167    -4.704878     0.429469
 H    -1.740729    -3.833675     1.635838
 C    -3.859125    -3.492334     1.802611
 H    -3.990750    -4.294094     2.547850
 H    -4.751796    -3.524467     1.151595
 C    -3.793285    -2.130818     2.483289
 H    -2.967401    -2.125572     3.218694
 H    -4.718268    -1.935184     3.050168
 C    -3.560816    -1.022581     1.460991
 H    -4.409862    -1.014448     0.757120
 H    -3.555558    -0.037915     1.951196
 C     1.214836    -2.587819     0.877348
 H     1.352390    -3.014879    -0.118690
 C     1.191167    -0.718649     2.374819
 H     1.312412     0.343105     2.588464
 C     0.859225    -3.431660     1.920438
 H     0.740951    -4.501212     1.725118
 C     0.810624    -1.566748     3.416664
 H     0.651687    -1.146812     4.414248
 C     0.631516    -2.935626     3.212637
 C     0.183092    -3.846039     4.316848
 H     0.239912    -3.352338     5.297070
 H    -0.862435    -4.162820     4.163125
 H     0.793378    -4.761111     4.357807
 H     2.800820    -1.833434    -1.639148
 C     4.270261    -1.588149    -0.105837
 H     3.769236    -2.215609     0.645466
 H     4.773865    -0.781538     0.449739
 C     5.318113    -2.405677    -0.857629
 H     6.051474    -2.821439    -0.147391
 H     4.823945    -3.271077    -1.335614
 C     6.022067    -1.575908    -1.925603
 H     6.742608    -2.195843    -2.483621
 H     6.612386    -0.781567    -1.433064
 C     5.020758    -0.932495    -2.878039
 H     4.513203    -1.719544    -3.464475
 H     5.539901    -0.288866    -3.606847
 C     3.970156    -0.123758    -2.123383
 H     4.467699     0.718240    -1.611585
 H     3.242986     0.312673    -2.821245
 H     1.360957     1.693849     1.004561
 C     2.339937     2.615184    -0.634366
 H     1.434735     2.631542    -1.259462
 H     3.190248     2.444793    -1.315657
 C     2.524037     3.949694     0.081602
 H     2.622680     4.761431    -0.657676
 H     1.611077     4.164214     0.663316
 C     3.723180     3.937335     1.022548
 H     3.797600     4.894430     1.564737
 H     4.651798     3.843659     0.430347
 C     3.642372     2.772283     2.001793
 H     2.776724     2.916720     2.674613
 H     4.537213     2.744270     2.644936
 C     3.484468     1.445194     1.265043
 H     4.375142     1.284167     0.634439
 H     3.455038     0.608133     1.978201
