  88
scf done:    -4025.705282
 C     0.918807    -1.214400    -3.237295
 H     1.199033    -0.482002    -4.001179
 H     1.739553    -1.860090    -2.909505
 C    -0.410495    -1.663729    -3.146077
 H    -1.172598    -1.281549    -3.832196
 H    -0.620272    -2.661090    -2.750925
 H     0.440793    -1.543043    -0.879725
Co    -0.013299    -0.359672    -1.645515
 C     3.138099    -0.792640    -0.601760
 O     2.363717     1.694068    -0.724042
 O     1.282178     0.203668     1.112725
 C    -2.355749     0.913313     0.441474
 O    -3.012920    -1.178978    -1.138978
 O    -1.513225    -1.489691     0.973181
 P    -1.670570    -0.546243    -0.392959
 P     1.625231     0.210605    -0.523509
 C    -0.540081     1.100257    -2.487572
 O    -0.923435     2.015411    -3.059634
 C     3.100878    -2.078195    -0.048437
 H     2.206038    -2.431515     0.469025
 C     4.278307    -0.358849    -1.279264
 H     4.292705     0.644724    -1.710688
 C     4.211455    -2.905260    -0.166058
 H     4.186322    -3.907742     0.267765
 C     5.400860    -1.186619    -1.406586
 C     6.625966    -0.696640    -2.122962
 H     7.140853     0.082978    -1.538081
 H     7.343707    -1.510201    -2.297992
 H     6.369036    -0.252813    -3.096872
 C     5.350269    -2.463661    -0.839798
 H     6.216078    -3.125187    -0.932328
 C     1.633091     2.829044    -0.948085
 C     2.009189     3.649155    -2.011149
 H     2.859434     3.355495    -2.629501
 C     0.545090     3.163597    -0.140624
 H     0.256456     2.512748     0.685719
 C     1.286936     4.810609    -2.269120
 H     1.577641     5.450898    -3.105341
 C    -0.175956     4.323274    -0.415643
 H    -1.036652     4.570427     0.208798
 C     0.189636     5.148991    -1.476793
 H    -0.381766     6.054978    -1.689764
 C     2.068976     0.528368     2.178989
 C     3.372930     1.020052     2.077011
 H     3.827726     1.175779     1.101007
 C     1.485251     0.361903     3.439861
 H     0.461203    -0.010036     3.499344
 C     4.080744     1.324373     3.239098
 H     5.100309     1.707165     3.150121
 C     2.202604     0.672598     4.590646
 H     1.734138     0.536335     5.568420
 C     3.508455     1.153438     4.497376
 H     4.073550     1.397213     5.399356
 C    -3.166573     1.789243    -0.290420
 H    -3.467556     1.542628    -1.311208
 C    -1.966400     1.246889     1.738739
 H    -1.326727     0.557322     2.290643
 C    -3.592455     2.975740     0.295322
 H    -4.234141     3.658185    -0.266652
 C    -2.373072     2.447600     2.331835
 C    -1.931949     2.787189     3.725954
 H    -2.409807     2.123219     4.464567
 H    -0.843207     2.665894     3.837808
 H    -2.190006     3.821921     3.990933
 C    -3.196718     3.303029     1.592558
 H    -3.529892     4.244027     2.039228
 C    -4.296620    -1.238859    -0.662559
 C    -5.314297    -1.137836    -1.612812
 H    -5.038122    -1.005417    -2.660689
 C    -4.604182    -1.412891     0.688108
 H    -3.803244    -1.498601     1.421962
 C    -6.644603    -1.207438    -1.210495
 H    -7.437690    -1.127947    -1.957956
 C    -5.941418    -1.475383     1.076867
 H    -6.181137    -1.608639     2.134566
 C    -6.965070    -1.373248     0.137107
 H    -8.009345    -1.424572     0.452536
 C    -0.846212    -2.681092     0.990368
 C    -1.089798    -3.667535     0.031944
 H    -1.820274    -3.480636    -0.757252
 C     0.071303    -2.903674     2.016537
 H     0.254174    -2.114132     2.744945
 C    -0.393295    -4.871863     0.098120
 H    -0.578796    -5.639009    -0.657286
 C     0.751779    -4.117673     2.080196
 H     1.472267    -4.286196     2.884107
 C     0.529158    -5.103001     1.118437
 H     1.069827    -6.050678     1.165968
