  68
scf done:    -3115.674710
 C    -3.507138    -0.686509     1.432454
 H    -4.310625    -1.088296     0.804941
 H    -3.196016    -1.362853     2.234604
 C    -3.409064     0.712496     1.626922
 H    -4.145346     1.369496     1.151998
 H    -3.025732     1.101234     2.576533
 H    -1.151079    -0.190352     1.638910
Co    -1.950192     0.054818     0.404248
 C     0.961829    -1.662474     0.198050
 C    -1.292740    -3.180128     0.989686
 C    -0.986557    -2.438030    -1.774692
 C     0.855640     1.492195    -0.808021
 C    -1.279833     3.289067    -0.509879
 C     0.070477     2.331780     1.867855
 P    -0.619037     1.739548     0.262897
 P    -0.857169    -1.728909    -0.072768
 C    -2.749475     0.349043    -1.116723
 O    -3.230615     0.578197    -2.140220
 C     1.904147    -1.945310    -0.793111
 H     1.591256    -2.190461    -1.808322
 C     1.418795    -1.321942     1.479116
 H     0.685799    -1.073523     2.252840
 C     3.266245    -1.905291    -0.495296
 H     3.994999    -2.125577    -1.279340
 C     2.777839    -1.276625     1.792711
 C     3.241800    -0.874455     3.162985
 H     2.414681    -0.880505     3.886758
 H     4.028777    -1.546839     3.537122
 H     3.666451     0.143751     3.153013
 C     3.701486    -1.584489     0.784822
 H     4.772152    -1.560371     1.006797
 H    -2.379543    -3.321450     0.877270
 C    -0.528675    -4.467236     0.735519
 H     0.558077    -4.313276     0.820425
 H    -0.730649    -4.874515    -0.267135
 H    -1.149111    -2.826863     2.023282
 H    -0.815328    -5.241822     1.463937
 H    -0.269501    -3.266494    -1.888382
 C    -2.392657    -2.907422    -2.117393
 H    -3.134795    -2.107661    -1.985808
 H    -2.701484    -3.755478    -1.487274
 H    -0.666418    -1.638810    -2.463285
 H    -2.445848    -3.240457    -3.165017
 C     0.625766     1.188589    -2.157330
 H    -0.397592     1.112027    -2.535518
 C     2.174249     1.544100    -0.349477
 H     2.379959     1.742316     0.704204
 C     1.695466     0.971967    -3.020238
 H     1.506267     0.738432    -4.071105
 C     3.260914     1.327107    -1.204057
 C     4.667307     1.421756    -0.689376
 H     5.101953     2.411548    -0.908038
 H     4.705110     1.274248     0.399199
 H     5.318516     0.668549    -1.156934
 C     3.004598     1.043013    -2.548580
 H     3.840221     0.864942    -3.231268
 H    -1.531107     3.020752    -1.548405
 C    -2.499950     3.858224     0.193457
 H    -2.290356     4.112646     1.244237
 H    -3.326474     3.135242     0.192348
 H    -0.462767     4.026084    -0.568476
 H    -2.845611     4.775809    -0.306891
 H     0.748379     1.528735     2.201544
 C     0.741984     3.695507     1.906782
 H     0.021454     4.506225     1.724272
 H     1.539702     3.790900     1.155309
 H    -0.781663     2.289911     2.564322
 H     1.191798     3.877912     2.895341
