  94
scf done:    -5941.997788
 C     0.930527     0.289231    -3.307031
 H     1.669798     1.048190    -3.584418
 H     1.281945    -0.736410    -3.456768
 C    -0.446677     0.581194    -3.419645
 H    -0.740830     1.569020    -3.792373
 H    -1.157353    -0.207854    -3.684625
 H    -0.101620    -0.901403    -1.511664
Co     0.121981     0.544318    -1.471752
 C     2.439135    -1.849700    -1.198709
 C     3.399185     0.787741    -0.458512
 C     1.816971    -0.541949     1.329936
 C    -1.570192     0.556664     1.558595
 C    -3.054294     1.540775    -0.627890
 C    -2.682005    -1.183917    -0.503535
 P    -1.671462     0.347482    -0.276267
 P     1.862267    -0.246610    -0.489349
 C     0.285715     2.290803    -1.329847
 O     0.349579     3.439305    -1.299566
 C     1.674511    -3.015594    -0.980783
 O     0.557491    -2.860130    -0.248969
 C    -0.312401    -3.943610    -0.072171
 H    -1.213332    -3.532906     0.393540
 H    -0.593729    -4.399509    -1.035099
 H     0.132536    -4.718204     0.577818
 C     3.532628    -1.949228    -2.085918
 O     4.134948    -0.802248    -2.432046
 C     5.316376    -0.809801    -3.181097
 H     5.639016     0.237017    -3.249897
 H     5.154616    -1.205102    -4.198889
 H     6.108857    -1.397015    -2.686456
 C     3.934303    -3.187605    -2.604945
 H     4.797209    -3.255029    -3.265933
 C     2.066798    -4.255088    -1.501913
 H     1.487162    -5.153503    -1.296311
 C     3.204928    -4.327621    -2.295555
 H     3.517793    -5.292979    -2.700243
 C     3.501165     1.924379    -1.260150
 H     2.672773     2.197144    -1.913352
 C     4.479479     0.446516     0.363635
 H     4.417557    -0.433360     1.008377
 C     4.654278     2.705786    -1.257037
 H     4.728919     3.596420    -1.883122
 C     5.641511     1.209484     0.373359
 H     6.484565     0.940652     1.012033
 C     5.722330     2.338793    -0.442112
Cl     7.167122     3.296697    -0.436198
 C     1.557788     0.596945     2.104208
 H     1.364542     1.551874     1.607517
 C     2.080433    -1.747746     1.981035
 H     2.330996    -2.640164     1.407451
 C     1.545345     0.537970     3.490942
 H     1.336506     1.426258     4.086862
 C     2.040983    -1.830435     3.372754
 H     2.234340    -2.776301     3.882109
 C     1.759780    -0.688535     4.116782
Cl     1.633244    -0.799204     5.843867
 C    -1.554420    -0.464939     2.528422
 O    -1.488099    -1.738229     2.098037
 C    -1.544343    -2.771295     3.044870
 H    -1.514940    -3.712634     2.484633
 H    -0.681729    -2.736406     3.730746
 H    -2.478728    -2.737018     3.630404
 C    -1.458513     1.887817     2.019624
 O    -1.289889     2.809033     1.058565
 C    -1.407403     4.176274     1.344571
 H    -1.276692     4.697163     0.388885
 H    -0.624458     4.514153     2.044447
 H    -2.400594     4.411950     1.762312
 C    -1.513139     2.208079     3.378480
 H    -1.465811     3.244694     3.709519
 C    -1.607203    -0.151361     3.895400
 H    -1.607949    -0.938814     4.646046
 C    -1.605323     1.174620     4.303683
 H    -1.638510     1.404536     5.371014
 C    -4.081701     1.808315     0.285467
 H    -4.066923     1.354156     1.278672
 C    -3.095695     2.161836    -1.876071
 H    -2.295805     1.962548    -2.589002
 C    -5.118691     2.677088    -0.034839
 H    -5.913544     2.889188     0.682305
 C    -4.130641     3.031266    -2.215800
 H    -4.155046     3.516175    -3.193034
 C    -5.137907     3.286084    -1.290227
Cl    -6.425928     4.373421    -1.693535
 C    -3.736072    -1.522532     0.354823
 H    -3.937629    -0.918085     1.241103
 C    -2.469213    -1.973182    -1.633714
 H    -1.644223    -1.720384    -2.302324
 C    -4.533701    -2.633271     0.110830
 H    -5.345494    -2.900775     0.789203
 C    -3.269837    -3.081757    -1.905227
 H    -3.097153    -3.692731    -2.792803
 C    -4.293478    -3.411963    -1.023273
Cl    -5.282835    -4.800634    -1.331416
