 110
scf done:    -4562.031812
 C    -0.777608    -0.276480    -3.592102
 H    -1.308708    -1.115157    -4.053328
 H    -1.309710     0.678198    -3.658919
 C     0.629477    -0.294352    -3.509874
 H     1.193078    -1.150765    -3.892991
 H     1.185631     0.648620    -3.519781
 H    -0.201033     0.778701    -1.508718
Co    -0.192757    -0.672774    -1.699643
 C    -2.993774     1.118809    -1.296961
 O    -2.844031    -1.475548    -0.295948
 O    -1.730209     0.292927     0.993430
 C     1.874733    -0.960583     1.117193
 O     2.971336    -1.062265    -1.364647
 O     1.969648     1.155262    -0.545977
 P     1.596568    -0.461745    -0.630830
 P    -1.874104    -0.176107    -0.616826
 C    -0.380678    -2.422790    -1.749968
 O    -0.554391    -3.557474    -1.732403
 C    -2.507232     2.444655    -1.336893
 O    -1.258138     2.611840    -0.881939
 C    -0.677507     3.884634    -0.801966
 H     0.339986     3.727839    -0.425114
 H    -0.625163     4.366049    -1.792847
 H    -1.231540     4.530386    -0.100411
 C    -4.242996     0.860612    -1.898330
 O    -4.617360    -0.422583    -2.003565
 C    -5.934158    -0.741799    -2.358480
 H    -6.022435    -1.830673    -2.260397
 H    -6.160033    -0.452262    -3.399185
 H    -6.660636    -0.264760    -1.678841
 C    -5.036326     1.913541    -2.376678
 H    -6.015780     1.713888    -2.808536
 C    -3.289047     3.496979    -1.823907
 H    -2.911614     4.518435    -1.817672
 C    -4.555514     3.215797    -2.322757
 H    -5.177413     4.031565    -2.699200
 C    -4.020531    -1.634323     0.361821
 C    -4.638932    -2.878204     0.203070
 H    -4.152855    -3.618515    -0.435924
 C    -4.626444    -0.666600     1.161875
 H    -4.148901     0.298800     1.305458
 C    -5.850907    -3.142789     0.829658
 H    -6.320926    -4.120615     0.688960
 C    -5.845395    -0.947276     1.777344
 H    -6.309560    -0.174758     2.397250
 C    -6.483691    -2.182146     1.629748
 C    -7.779564    -2.482755     2.326432
 H    -8.442729    -3.097556     1.699300
 H    -8.319087    -1.561200     2.588826
 H    -7.610700    -3.041018     3.262796
 C    -1.484154     1.475873     1.618360
 C    -0.211187     1.728259     2.132053
 H     0.577860     0.994567     1.972823
 C    -2.502468     2.410080     1.822829
 H    -3.496426     2.230453     1.410667
 C     0.036396     2.907103     2.827127
 H     1.040318     3.084323     3.224989
 C    -2.236689     3.588357     2.516797
 H    -3.043612     4.313043     2.659268
 C    -0.965836     3.863351     3.033527
 C    -0.692137     5.119268     3.809720
 H     0.314235     5.512107     3.600107
 H    -0.748867     4.937857     4.896320
 H    -1.420925     5.907778     3.572127
 C     2.989831    -0.475622     1.836017
 O     3.935473     0.120807     1.100813
 C     5.076097     0.663013     1.705980
 H     5.654155     1.131868     0.899745
 H     4.813785     1.436256     2.447202
 H     5.682514    -0.121886     2.188953
 C     0.918875    -1.727586     1.817995
 O    -0.025024    -2.330776     1.090134
 C    -1.072219    -3.020838     1.723670
 H    -1.699239    -3.420950     0.920354
 H    -1.678421    -2.341079     2.343584
 H    -0.689477    -3.851855     2.339723
 C     0.995450    -1.861561     3.212133
 H     0.232606    -2.413443     3.758030
 C     3.082093    -0.624747     3.223171
 H     3.936922    -0.233178     3.772539
 C     2.065693    -1.298361     3.893376
 H     2.122526    -1.406705     4.979246
 C     3.714775    -2.113418    -0.920240
 C     3.126421    -3.309300    -0.507677
 H     2.039992    -3.418873    -0.523267
 C     5.103819    -1.981389    -0.904536
 H     5.544461    -1.033463    -1.217952
 C     3.933105    -4.358535    -0.072951
 H     3.459603    -5.288169     0.254691
 C     5.893908    -3.042956    -0.477682
 H     6.981775    -2.927559    -0.468172
 C     5.326880    -4.250852    -0.049966
 C     6.190494    -5.399045     0.387070
 H     6.543534    -5.985264    -0.478197
 H     5.641889    -6.087466     1.046044
 H     7.083178    -5.050109     0.927645
 C     3.073567     1.924180    -0.687822
 C     3.205566     3.013731     0.177407
 H     2.452579     3.153662     0.956029
 C     4.024307     1.722570    -1.691008
 H     3.915138     0.877259    -2.369281
 C     4.286706     3.880070     0.049738
 H     4.376187     4.725807     0.738042
 C     5.105166     2.595160    -1.795604
 H     5.846395     2.421984    -2.581563
 C     5.263521     3.688150    -0.934854
 C     6.414264     4.640861    -1.089026
 H     6.676228     5.116314    -0.132257
 H     6.172021     5.449891    -1.798958
 H     7.311343     4.132319    -1.472186
