  90
scf done:    -3652.009451
 C    -1.503183    -1.475058    -2.336298
 H    -1.813270    -2.502370    -2.113918
 H    -2.337073    -0.770774    -2.415611
 C    -0.316643    -1.241983    -3.069124
 H     0.281307    -2.095581    -3.405261
 H    -0.251402    -0.375431    -3.732956
 H    -0.610850     0.566085    -1.405951
Co    -0.066133    -0.784118    -1.110221
 C    -3.003334     0.056598     0.116069
 C    -1.440713    -1.776711     1.835612
 C    -0.776913     0.965927     1.761398
 C     2.466032     0.635377     0.679356
 C     3.304688    -0.143601    -1.933751
 C     1.586314     2.101548    -1.714046
 P     1.756522     0.394415    -1.023771
 P    -1.281091    -0.387089     0.613628
 C     0.498378    -2.368310    -0.645013
 O     0.780169    -3.448816    -0.350704
 C    -3.300675     1.366946    -0.310767
 O    -2.305956     2.273622    -0.200706
 C    -2.438992     3.532368    -0.792481
 H    -1.474048     4.039976    -0.660458
 H    -2.655001     3.454018    -1.871924
 H    -3.227189     4.137538    -0.310896
 C    -3.995750    -0.922221    -0.086319
 O    -3.655305    -2.191829     0.214613
 C    -4.535505    -3.238322    -0.076914
 H    -4.018728    -4.165183     0.203663
 H    -4.780035    -3.276774    -1.152490
 H    -5.472516    -3.164565     0.502482
 C    -5.256216    -0.594506    -0.602170
 H    -6.018153    -1.360760    -0.736622
 C    -4.554745     1.704766    -0.833224
 H    -4.772350     2.726485    -1.141304
 C    -5.525131     0.719298    -0.962852
 H    -6.506551     0.977795    -1.367126
 H    -2.318829    -1.636795     2.485682
 H    -1.632386    -2.677471     1.239434
 C    -0.164031    -1.956915     2.651816
 H    -0.114227    -1.201358     3.452832
 H     0.711736    -1.765390     2.009471
 C    -0.045630    -3.348808     3.252133
 H    -0.910572    -3.587882     3.891801
 H     0.005199    -4.110661     2.458322
 H     0.861058    -3.444665     3.870464
 H     0.160711     0.607565     2.212860
 H    -0.505873     1.830189     1.144444
 C    -1.769885     1.355077     2.844696
 H    -1.985387     0.483307     3.485783
 H    -2.731205     1.635335     2.384561
 C    -1.261855     2.501953     3.705627
 H    -0.292458     2.254162     4.168428
 H    -1.116842     3.411408     3.099920
 H    -1.966804     2.751224     4.513870
 C     2.404519     1.802641     1.466467
 O     1.848424     2.898322     0.906933
 C     1.789159     4.096335     1.625132
 H     1.323469     4.833766     0.957878
 H     1.173265     4.001134     2.535549
 H     2.793645     4.457153     1.906973
 C     3.009077    -0.516127     1.290553
 O     3.039397    -1.621044     0.519353
 C     3.506857    -2.833766     1.044605
 H     3.387304    -3.579655     0.250484
 H     2.911427    -3.152912     1.916405
 H     4.570067    -2.766333     1.332040
 C     3.475266    -0.512981     2.609805
 H     3.887224    -1.415605     3.058357
 C     2.874948     1.818915     2.786996
 H     2.820634     2.728686     3.382637
 C     3.401828     0.662025     3.346257
 H     3.762446     0.677548     4.377322
 H     3.580847     0.684828    -2.607433
 H     4.114902    -0.223466    -1.194632
 C     3.185212    -1.437033    -2.720069
 H     2.420362    -1.320435    -3.503243
 H     2.807887    -2.228541    -2.054323
 C     4.506751    -1.863857    -3.339350
 H     4.898168    -1.095308    -4.025957
 H     5.274199    -2.031509    -2.565714
 H     4.401400    -2.798020    -3.912434
 H     0.815463     2.607244    -1.119239
 H     2.528933     2.652737    -1.562959
 C     1.173630     2.103946    -3.178184
 H     0.217857     1.565141    -3.266915
 H     1.898825     1.539985    -3.790276
 C     1.029246     3.513549    -3.731151
 H     0.276380     4.085238    -3.163738
 H     1.977708     4.071758    -3.671236
 H     0.713393     3.503978    -4.785735
