  76
scf done:    -3344.605787
 C     0.147859     0.514206    -3.086839
 H     1.102671     0.271019    -3.562210
 H    -0.721324     0.258364    -3.701322
 C     0.068202     1.584708    -2.173537
 H     0.946829     2.191575    -1.942277
 H    -0.860144     2.160523    -2.105330
 H     0.017460     0.257406     0.231023
Co     0.009736    -0.190588    -1.189632
 O    -2.178539     1.753378     0.109136
 C    -3.271167     0.424136    -1.854979
 C    -2.606147    -0.875455     0.811802
 O     2.069288    -0.876506     1.193939
 C     3.211122    -1.470885    -1.116921
 C     2.808378     1.360369    -0.090144
 P     1.980214    -0.276418    -0.386859
 P    -1.965721     0.211136    -0.552627
 C    -0.130341    -1.859056    -1.623517
 O    -0.188996    -2.963260    -1.964572
 C    -1.223682     2.452750     0.775451
 C    -0.846660     3.702606     0.278561
 H    -1.318993     4.067473    -0.635011
 C    -0.639894     1.968716     1.949759
 H    -0.940900     0.997634     2.343679
 C     0.119784     4.453855     0.942207
 H     0.410735     5.428579     0.543054
 C     0.328074     2.726330     2.605873
 H     0.781899     2.340311     3.522144
 C     0.718192     3.967102     2.104883
 H     1.480049     4.555047     2.621129
 H    -2.825134     1.259385    -2.425711
 C    -3.359776    -0.775901    -2.792491
 H    -3.926992    -0.501419    -3.695804
 H    -2.366048    -1.123041    -3.108127
 H    -3.879245    -1.624416    -2.325489
 C    -4.637070     0.875807    -1.354984
 H    -4.553745     1.718371    -0.655043
 H    -5.260349     1.196611    -2.205443
 H    -5.172289     0.055618    -0.852971
 H    -1.681256    -1.049506     1.387104
 C    -3.633947    -0.241477     1.741154
 H    -3.767939    -0.886878     2.624111
 H    -3.322895     0.752226     2.090421
 H    -4.615221    -0.131312     1.258795
 C    -3.071201    -2.232081     0.292439
 H    -2.347368    -2.691276    -0.395212
 H    -3.199115    -2.921133     1.141252
 H    -4.041784    -2.157691    -0.221146
 C     1.114077    -1.576017     1.852583
 C     0.662360    -1.076454     3.077604
 H     1.076043    -0.133009     3.436795
 C     0.619452    -2.795170     1.379773
 H     0.978985    -3.200861     0.434288
 C    -0.289243    -1.778911     3.813355
 H    -0.635976    -1.377160     4.768645
 C    -0.334198    -3.490113     2.120056
 H    -0.717905    -4.438482     1.736642
 C    -0.798610    -2.986241     3.334705
 H    -1.547200    -3.535608     3.909606
 H     2.682659    -2.419408    -0.907525
 C     3.335594    -1.362529    -2.631440
 H     3.919173    -2.212407    -3.019363
 H     2.349639    -1.383467    -3.115645
 H     3.851552    -0.442398    -2.941907
 C     4.559349    -1.528848    -0.411251
 H     4.439666    -1.606771     0.678264
 H     5.126866    -2.408469    -0.756038
 H     5.172417    -0.641769    -0.631042
 H     1.927785     2.006336     0.070347
 C     3.686177     1.462543     1.149965
 H     3.991943     2.512259     1.289011
 H     3.147118     1.141694     2.049723
 H     4.598704     0.855317     1.067616
 C     3.533050     1.844255    -1.344135
 H     2.934802     1.719348    -2.258778
 H     3.767171     2.916058    -1.247738
 H     4.485000     1.312087    -1.489770
