  90
scf done:    -3651.986019
 C     0.628491    -3.340161     0.190889
 H     0.556019    -3.907162    -0.745170
 H     1.621365    -3.358671     0.643514
 C    -0.512756    -3.208221     1.021189
 H    -1.460348    -3.669494     0.718023
 H    -0.385529    -3.154071     2.106216
 H     0.750652    -1.193391     1.277917
Co    -0.102907    -1.470774     0.097428
 C     2.778319     0.389348     0.098229
 C     2.492064    -1.542103    -2.081712
 C     0.890141     0.994352    -2.104285
 C    -2.728573     0.602461     0.014314
 C    -2.311107    -0.794429     2.574055
 C    -0.544818     1.498464     1.820009
 P    -1.371764    -0.037050     1.128270
 P     1.470308    -0.396823    -0.984162
 C    -1.166399    -1.883676    -1.224571
 O    -1.875354    -2.263692    -2.051837
 C     2.922123     1.762575     0.394442
 O     2.054266     2.629692    -0.174659
 C     2.223049     4.005331    -0.001363
 H     1.465776     4.491444    -0.629888
 H     2.066750     4.313021     1.047448
 H     3.221024     4.342995    -0.329852
 C     3.637552    -0.485729     0.807883
 O     3.472938    -1.799893     0.573399
 C     4.262838    -2.740487     1.242681
 H     3.927515    -3.726681     0.897115
 H     4.127525    -2.682467     2.336145
 H     5.333968    -2.621197     1.003676
 C     4.613383    -0.025485     1.698337
 H     5.264338    -0.726404     2.217736
 C     3.907406     2.232893     1.274759
 H     4.002146     3.298140     1.476543
 C     4.746519     1.337764     1.917802
 H     5.507988     1.706498     2.608655
 H     2.606347    -2.405825    -1.414610
 C     1.701851    -2.017307    -3.295519
 H     2.222110    -2.872553    -3.756712
 H     0.689588    -2.351758    -3.029595
 H     1.616211    -1.238144    -4.067460
 C     3.886638    -1.073904    -2.480187
 H     4.468652    -0.706902    -1.624002
 H     4.442667    -1.917340    -2.923104
 H     3.859076    -0.273765    -3.232354
 H     0.559138     1.733962    -1.366038
 C     1.962769     1.634475    -2.977630
 H     1.600066     2.599275    -3.371075
 H     2.895552     1.827063    -2.430476
 H     2.202001     1.004435    -3.847573
 C    -0.349392     0.643250    -2.920734
 H    -1.181734     0.327480    -2.282040
 H    -0.681647     1.543301    -3.464837
 H    -0.177303    -0.142381    -3.668099
 C    -2.718148     1.829430    -0.684826
 O    -1.678816     2.666114    -0.462319
 C    -1.649070     3.919152    -1.077860
 H    -0.755110     4.428887    -0.697000
 H    -1.573294     3.838154    -2.176356
 H    -2.535620     4.525362    -0.823029
 C    -3.751151    -0.306970    -0.347983
 O    -3.701489    -1.515481     0.243795
 C    -4.540762    -2.547954    -0.192063
 H    -4.247806    -3.440959     0.374783
 H    -4.402633    -2.745262    -1.267731
 H    -5.602963    -2.328108     0.012481
 C    -4.750296     0.015067    -1.272047
 H    -5.528591    -0.705155    -1.518446
 C    -3.721469     2.165958    -1.603282
 H    -3.700255     3.125155    -2.117332
 C    -4.733506     1.259695    -1.884146
 H    -5.510905     1.521651    -2.605326
 H    -2.577063    -1.769658     2.148526
 C    -1.396662    -1.055557     3.766241
 H    -1.856204    -1.813500     4.421287
 H    -0.410816    -1.429341     3.455353
 H    -1.246410    -0.151520     4.374044
 C    -3.598515    -0.103514     3.006280
 H    -4.271671     0.097364     2.162440
 H    -4.140355    -0.750156     3.716993
 H    -3.406455     0.850248     3.517029
 H    -0.144570     1.949811     0.903521
 C    -1.480148     2.503173     2.484820
 H    -0.973840     3.478592     2.580913
 H    -2.409053     2.662778     1.921419
 H    -1.749403     2.182055     3.502333
 C     0.654935     1.209225     2.719099
 H     1.278362     0.398664     2.320462
 H     1.282006     2.112608     2.784954
 H     0.358870     0.945303     3.742460
