 106
scf done:    -4261.258206
 C     1.117220     0.169276    -3.420270
 H     1.916440     0.869643    -3.688490
 H     1.397619    -0.880579    -3.523870
 C    -0.236779     0.554238    -3.587954
 H    -0.469615     1.545827    -3.992621
 H    -0.989326    -0.197940    -3.847565
 H    -0.191848    -0.875437    -1.660638
Co     0.252801     0.532682    -1.642096
 C     1.328407    -2.033118     0.293548
 C     3.410275    -0.444887    -1.063813
 C     2.157607     0.622171     1.290978
 C    -2.049813     2.269606     0.051412
 C    -3.132055     0.068549    -1.560294
 C    -1.700141    -0.591605     0.822285
 P    -1.614549     0.589451    -0.589068
 P     1.731554    -0.300416    -0.278846
 C     0.553946     2.260900    -1.732324
 O     0.624180     3.386772    -1.960081
 C     0.920502    -2.404158     1.593746
 O     0.953133    -1.455381     2.552847
 C     0.502390    -1.744414     3.846379
 H     0.642177    -0.826050     4.431530
 H    -0.567000    -2.017098     3.855615
 H     1.089826    -2.551714     4.316174
 C     1.267486    -3.044124    -0.695207
 O     1.681330    -2.698088    -1.927938
 C     1.540388    -3.597846    -2.991850
 H     1.882691    -3.070372    -3.891084
 H     0.487628    -3.895114    -3.131842
 H     2.157640    -4.501344    -2.849448
 C     0.814643    -4.337435    -0.412927
 H     0.770301    -5.092947    -1.195022
 C     0.470748    -3.699431     1.883995
 H     0.154902    -3.959863     2.892545
 C     0.416365    -4.652834     0.877809
 H     0.057555    -5.659349     1.103900
 H     3.592205     0.570534    -1.449299
 H     3.245198    -1.080905    -1.943931
 C     4.600518    -0.919084    -0.278832
 C     4.576563    -2.069473     0.521254
 H     3.654189    -2.644666     0.609825
 C     5.809941    -0.215499    -0.375637
 H     5.852246     0.681230    -1.000062
 C     5.713308    -2.487035     1.211520
 H     5.664809    -3.385292     1.832411
 C     6.949332    -0.633157     0.308269
 H     7.877370    -0.063651     0.213415
 C     6.904815    -1.771381     1.111700
 H     7.794684    -2.100301     1.653693
 H     2.886365     0.026885     1.858554
 H     1.229621     0.654682     1.870817
 C     2.651227     2.019423     1.071488
 C     1.739006     3.073139     0.941863
 H     0.671155     2.856593     0.977409
 C     4.018961     2.319439     1.039500
 H     4.745858     1.515645     1.171940
 C     2.173315     4.383006     0.759050
 H     1.436020     5.181112     0.644882
 C     4.457964     3.629364     0.858341
 H     5.530105     3.841628     0.838120
 C     3.536835     4.666384     0.711457
 H     3.882015     5.693001     0.566581
 C    -2.434448     3.242545    -0.893048
 O    -2.581502     2.797073    -2.155670
 C    -2.664978     3.716267    -3.210633
 H    -2.644087     3.126823    -4.135933
 H    -3.603873     4.295615    -3.178718
 H    -1.805056     4.406307    -3.203142
 C    -1.781818     2.715428     1.361232
 O    -1.298606     1.797329     2.225800
 C    -1.074012     2.149797     3.561804
 H    -0.735012     1.237091     4.067703
 H    -1.998258     2.502859     4.049880
 H    -0.291182     2.922227     3.652956
 C    -1.979244     4.051340     1.731104
 H    -1.783097     4.379896     2.750430
 C    -2.625092     4.581924    -0.537609
 H    -2.931570     5.316681    -1.280700
 C    -2.404996     4.969177     0.777782
 H    -2.553504     6.012576     1.065144
 H    -2.986621     0.478515    -2.566827
 H    -4.010075     0.564648    -1.123427
 C    -3.341488    -1.417877    -1.596182
 C    -4.413786    -1.999713    -0.907944
 H    -5.098474    -1.359875    -0.346036
 C    -2.475325    -2.264744    -2.304162
 H    -1.631817    -1.832596    -2.844440
 C    -4.609905    -3.378801    -0.911563
 H    -5.451494    -3.804325    -0.359735
 C    -2.667212    -3.644210    -2.305018
 H    -1.979853    -4.285424    -2.863003
 C    -3.732571    -4.209448    -1.605370
 H    -3.881623    -5.292007    -1.606969
 H    -0.872153    -0.320990     1.488909
 H    -1.404671    -1.537644     0.344143
 C    -2.950688    -0.822232     1.622272
 C    -3.150680    -2.096284     2.173875
 H    -2.414268    -2.879358     1.970829
 C    -3.923205     0.155139     1.858305
 H    -3.806215     1.150597     1.427764
 C    -4.278438    -2.385182     2.936639
 H    -4.413714    -3.389434     3.346507
 C    -5.058339    -0.132440     2.616504
 H    -5.808333     0.646150     2.778136
 C    -5.241992    -1.401745     3.160981
 H    -6.133394    -1.625798     3.751869
