 104
scf done:    -3587.055776
 C     0.315949     1.925227    -2.839906
 H     0.902777     2.842734    -2.718267
 H     0.705345     1.266312    -3.622275
 C    -1.077221     1.949803    -2.582556
 H    -1.551784     2.888853    -2.275368
 H    -1.738739     1.293356    -3.156851
 H    -0.338817    -0.248450    -1.919537
Co    -0.107071     0.978945    -1.113696
 C     1.904965    -1.841124    -0.906481
 C     3.292122     0.661863    -1.242364
 C     2.065357     0.055549     1.263691
 C    -1.434408    -1.413927     0.966220
 C    -2.495226     1.227188     1.273976
 C    -3.233064    -0.264525    -1.030865
 P    -1.745911     0.121927    -0.011656
 P     1.724629    -0.037977    -0.550302
 C     0.127486     2.352500    -0.061407
 O     0.258632     3.231746     0.673524
 C     1.899845    -2.761718     0.150467
 H     1.768704    -2.417693     1.176300
 C     2.002034    -2.331796    -2.229502
 C     1.958988    -1.436256    -3.432487
 H     2.965072    -1.078747    -3.705771
 H     1.323682    -0.559960    -3.245552
 H     1.559188    -1.975674    -4.302783
 C     2.027396    -4.130334    -0.068227
 H     2.016271    -4.815527     0.782327
 C     2.125701    -3.711592    -2.429281
 H     2.196949    -4.085260    -3.454680
 C     2.150245    -4.610704    -1.367355
 H     2.252240    -5.681923    -1.557521
 H     3.226861     0.586561    -2.337093
 H     4.127960     0.021028    -0.920011
 C     3.503110     2.117292    -0.852703
 H     2.613991     2.689465    -1.161068
 H     3.563427     2.219375     0.245741
 C     4.745675     2.765718    -1.467943
 H     4.676770     2.635880    -2.564745
 C     4.757764     4.261202    -1.173200
 H     3.844055     4.751249    -1.543615
 H     5.622274     4.757563    -1.640821
 H     4.815453     4.444982    -0.087218
 C     6.037876     2.108033    -0.996069
 H     6.918453     2.595056    -1.443014
 H     6.082374     1.040777    -1.260038
 H     6.136377     2.185939     0.100257
 H     1.257657    -0.517145     1.749327
 H     1.863341     1.104872     1.528093
 C     3.435598    -0.376269     1.771346
 H     3.770848    -1.283425     1.242547
 H     4.181620     0.401874     1.530934
 C     3.477210    -0.650890     3.276957
 H     2.742061    -1.453304     3.482455
 C     4.853444    -1.160083     3.687426
 H     5.134783    -2.060553     3.119330
 H     4.887701    -1.411878     4.758834
 H     5.625321    -0.394606     3.501120
 C     3.075052     0.569214     4.097907
 H     3.123652     0.355788     5.176995
 H     2.050291     0.900195     3.872128
 H     3.751839     1.416715     3.895632
 C    -1.229346    -1.293339     2.350929
 H    -1.286363    -0.312865     2.825306
 C    -1.320768    -2.691620     0.374265
 C    -1.431217    -2.924044    -1.103605
 H    -0.985686    -2.092728    -1.669090
 H    -2.481420    -3.031368    -1.421374
 H    -0.900349    -3.844135    -1.384262
 C    -0.947919    -2.396237     3.151069
 H    -0.789857    -2.263970     4.224025
 C    -1.072498    -3.793677     1.203174
 H    -0.993695    -4.780929     0.740526
 C    -0.886930    -3.662294     2.574217
 H    -0.684068    -4.543348     3.187822
 H    -1.668283     1.558423     1.922957
 H    -3.192217     0.652868     1.903920
 C    -3.170323     2.449953     0.663444
 H    -2.573578     2.803652    -0.193499
 H    -4.154661     2.164856     0.250284
 C    -3.362178     3.614091     1.637162
 H    -2.357701     3.893834     2.005925
 C    -3.944225     4.819827     0.909681
 H    -3.308178     5.121094     0.062888
 H    -4.043359     5.686142     1.581941
 H    -4.946887     4.592052     0.510188
 C    -4.220256     3.229305     2.836802
 H    -4.352181     4.081753     3.521100
 H    -3.775658     2.406534     3.417014
 H    -5.223838     2.905296     2.511917
 H    -2.891929    -0.849244    -1.896880
 H    -3.527342     0.713826    -1.441118
 C    -4.388695    -0.946276    -0.317714
 H    -4.026347    -1.869093     0.166154
 H    -4.756148    -0.304977     0.503892
 C    -5.571925    -1.296527    -1.224586
 H    -5.182251    -1.928531    -2.045628
 C    -6.604509    -2.112491    -0.455719
 H    -6.160394    -3.026042    -0.030499
 H    -7.443587    -2.413362    -1.102103
 H    -7.022274    -1.526284     0.379948
 C    -6.208960    -0.059264    -1.847616
 H    -7.066018    -0.330475    -2.483275
 H    -5.500142     0.503161    -2.473508
 H    -6.579371     0.624026    -1.064293
