  82
scf done:    -3423.175937
 C    -0.502430    -0.388233    -3.253384
 H    -1.275889     0.244332    -3.698531
 H     0.361696    -0.543008    -3.907516
 C    -0.856759    -1.380449    -2.316625
 H    -1.900499    -1.540484    -2.036281
 H    -0.271508    -2.304169    -2.270870
 H    -0.112970    -0.188760     0.052321
Co     0.015774     0.195291    -1.381628
 O     1.199725    -2.499527    -0.117201
 C     2.661558    -1.799756    -2.167370
 C     2.768607    -0.316984     0.484217
 O    -1.417485     1.737270     1.061266
 C    -2.321482     2.726553    -1.212770
 C    -3.113076     0.008943    -0.106802
 P    -1.681293     1.128878    -0.495778
 P     1.647747    -1.027126    -0.818013
 C     0.843611     1.635920    -1.862438
 O     1.358922     2.602592    -2.235390
 C     0.065810    -2.693830     0.608252
 C    -0.872426    -3.621669     0.156838
 H    -0.677537    -4.158424    -0.773018
 C    -0.172764    -2.007562     1.801774
 H     0.557150    -1.283952     2.165566
 C    -2.042439    -3.841016     0.879497
 H    -2.771986    -4.564525     0.504963
 C    -1.346365    -2.236264     2.513157
 H    -1.521348    -1.685303     3.441957
 C    -2.309029    -3.148681     2.066021
 C    -3.569238    -3.385329     2.846731
 H    -4.010837    -2.437930     3.191776
 H    -3.376492    -3.998835     3.742507
 H    -4.323194    -3.911037     2.243679
 H     1.867772    -2.360416    -2.694464
 C     3.217402    -0.766232    -3.141992
 H     3.553943    -1.266148    -4.063899
 H     2.462286    -0.016988    -3.418003
 H     4.082980    -0.232627    -2.724870
 C     3.716290    -2.799734    -1.712236
 H     3.308562    -3.514278    -0.984276
 H     4.092524    -3.368503    -2.578066
 H     4.580990    -2.292560    -1.258059
 H     2.042566     0.247438     1.093137
 C     3.464730    -1.327603     1.387622
 H     3.906027    -0.799443     2.248506
 H     2.772265    -2.087248     1.774223
 H     4.278804    -1.853865     0.869805
 C     3.750573     0.695834    -0.095258
 H     3.264723     1.419058    -0.764687
 H     4.211164     1.268256     0.724640
 H     4.563645     0.200516    -0.647453
 C    -0.214541     1.937119     1.655660
 C     0.044663     1.286998     2.864143
 H    -0.720544     0.625992     3.273539
 C     0.740596     2.814149     1.137475
 H     0.544003     3.350409     0.209121
 C     1.253437     1.486692     3.524768
 H     1.438732     0.965154     4.468170
 C     1.946752     3.003131     1.806548
 H     2.684808     3.687794     1.379851
 C     2.235855     2.337103     3.002888
 C     3.561966     2.503702     3.686286
 H     3.466167     2.433284     4.779742
 H     4.020983     3.473476     3.445733
 H     4.272280     1.719615     3.371892
 H    -1.424963     3.356411    -1.062749
 C    -2.568881     2.664534    -2.714608
 H    -2.754478     3.678071    -3.104140
 H    -1.698830     2.255097    -3.245926
 H    -3.445959     2.051245    -2.967421
 C    -3.469666     3.369698    -0.446402
 H    -3.263828     3.400682     0.632490
 H    -3.622070     4.404128    -0.794967
 H    -4.416917     2.832325    -0.604748
 H    -2.588376    -0.952650     0.028726
 C    -3.872899     0.304671     1.179342
 H    -4.603184    -0.501202     1.359506
 H    -3.196501     0.353926     2.041619
 H    -4.426669     1.252885     1.129839
 C    -4.050449    -0.124554    -1.304640
 H    -3.513574    -0.275169    -2.252798
 H    -4.714859    -0.991233    -1.161472
 H    -4.689486     0.763923    -1.417830
