  62
scf done:    -3409.711097
 C     0.820321    -3.185742     1.636708
 H     0.063108    -3.973893     1.693985
 H     1.689624    -3.444251     1.027650
 C     0.923253    -2.239941     2.669751
 H     0.250118    -2.308104     3.529059
 H     1.884896    -1.763597     2.882755
 H     1.419959    -1.059019     0.622110
Co     0.045326    -1.413810     1.020421
 O     0.805143    -0.494756    -1.963249
 O     1.156548    -2.967158    -1.435959
 O    -1.057705    -2.084534    -1.993254
 O    -0.507232     1.781505     0.557324
 O    -0.647946     1.154354     2.906365
 O     1.592790     1.218190     1.706431
 P     0.108848     0.597315     1.549667
 P     0.193970    -1.728493    -1.015163
 C    -1.634311    -1.828120     1.329675
 O    -2.727212    -2.121470     1.521289
 C     1.905174     0.243997    -1.635467
 C     3.080008    -0.341082    -1.158950
 H     3.137503    -1.424475    -1.042549
 C     1.845948     1.625226    -1.813659
 H     0.927583     2.060958    -2.206005
 C     4.164919     0.466700    -0.827693
 H     5.074696    -0.001915    -0.442455
 C     2.944175     2.415136    -1.495733
 H     2.883459     3.497133    -1.644810
 C     4.119632     1.855472    -0.979294
 C     5.277583     2.723264    -0.579567
 H     5.408865     3.568208    -1.272012
 H     6.218385     2.154963    -0.553745
 H     5.125103     3.149411     0.426780
 C     1.361760    -3.325013    -2.790743
 H     0.435341    -3.716246    -3.235455
 H     1.704501    -2.460313    -3.381129
 H     2.135368    -4.104110    -2.801954
 C    -2.135200    -1.186015    -2.157220
 H    -1.833581    -0.321659    -2.767502
 H    -2.940112    -1.731489    -2.667304
 H    -2.512765    -0.816811    -1.190368
 C    -1.755566     1.751954     0.015234
 C    -1.921335     2.297506    -1.259536
 H    -1.055591     2.729222    -1.762560
 C    -2.861328     1.217711     0.679967
 H    -2.750060     0.831127     1.692273
 C    -3.170205     2.280188    -1.869236
 H    -3.278748     2.706651    -2.870575
 C    -4.103171     1.194193     0.048263
 H    -4.953183     0.753807     0.576562
 C    -4.286026     1.717436    -1.235270
 C    -5.633745     1.713213    -1.896844
 H    -5.551130     1.541600    -2.980489
 H    -6.147925     2.679337    -1.759641
 H    -6.285262     0.933255    -1.477472
 C    -0.661267     0.396377     4.093776
 H    -1.228280    -0.540447     3.969573
 H     0.356979     0.148707     4.435311
 H    -1.152384     1.009516     4.861993
 C     1.820545     2.593032     1.949140
 H     1.657781     3.175994     1.031190
 H     1.159344     2.972136     2.743804
 H     2.868269     2.692846     2.262678
