 104
scf done:    -3811.215913
 C     0.240847    -0.838055     2.782467
 H     1.192566    -0.573149     3.252827
 H    -0.621152    -0.708292     3.444740
 C     0.203838    -1.819941     1.770962
 H     1.114262    -2.335100     1.456072
 H    -0.680991    -2.456818     1.674029
 H    -0.012696    -0.260986    -0.492689
Co    -0.009915     0.031688     0.966259
 O    -2.068984    -1.959885    -0.459506
 C    -3.178138    -0.928912     1.659098
 C    -2.760794     0.667153    -0.882073
 O     1.995414     0.985339    -1.381517
 C     3.053994     1.576188     0.981180
 C     2.915960    -1.208857    -0.198713
 P     1.948144     0.322703     0.173406
 P    -1.961223    -0.473985     0.341634
 C    -0.276903     1.649281     1.520237
 O    -0.421177     2.723120     1.926243
 C    -1.089776    -2.523394    -1.210643
 C    -0.657021    -3.807964    -0.871182
 H    -1.101759    -4.296056    -0.002218
 C    -0.538297    -1.876842    -2.321289
 H    -0.876929    -0.876107    -2.591957
 C     0.320462    -4.439870    -1.634723
 H     0.650766    -5.445054    -1.361570
 C     0.442912    -2.515576    -3.077032
 H     0.868419    -2.005358    -3.944779
 C     0.878195    -3.796149    -2.740124
 H     1.642757    -4.293731    -3.340465
 H    -2.641836    -1.782332     2.118251
 C    -4.540998    -1.450109     1.204721
 H    -4.412786    -2.215647     0.425380
 H    -5.119432    -0.624226     0.755694
 C    -5.319149    -2.011200     2.392361
 H    -6.312327    -2.357847     2.063092
 H    -4.791408    -2.902360     2.777817
 C    -5.457166    -0.984064     3.511250
 H    -5.983698    -1.423787     4.373832
 H    -6.087638    -0.147962     3.157101
 C    -4.099802    -0.434954     3.938910
 H    -3.506163    -1.244458     4.401361
 H    -4.224343     0.339689     4.712705
 C    -3.327454     0.132662     2.752045
 H    -3.869743     1.006792     2.357751
 H    -2.338656     0.497938     3.066231
 H    -1.888128     1.053356    -1.440798
 C    -3.431093     1.868569    -0.207713
 H    -2.735383     2.361399     0.488867
 H    -4.288549     1.516540     0.390232
 C    -3.937456     2.870595    -1.240820
 H    -4.450499     3.702133    -0.730810
 H    -3.072236     3.306671    -1.765502
 C    -4.861716     2.213982    -2.258972
 H    -5.176038     2.947153    -3.019679
 H    -5.785029     1.877762    -1.752227
 C    -4.189776     1.015052    -2.918166
 H    -3.322710     1.362051    -3.508252
 H    -4.878483     0.527218    -3.627053
 C    -3.709984     0.003100    -1.882446
 H    -4.580282    -0.415339    -1.351517
 H    -3.218054    -0.847327    -2.375573
 C     1.044089     1.729879    -1.991474
 C     0.643626     1.343008    -3.274289
 H     1.080483     0.439031    -3.701450
 C     0.512270     2.891754    -1.423477
 H     0.819454     3.205888    -0.426247
 C    -0.275918     2.111065    -3.983980
 H    -0.577653     1.800096    -4.987225
 C    -0.406229     3.654270    -2.140991
 H    -0.811078     4.562306    -1.687791
 C    -0.805907     3.271892    -3.421235
 H    -1.525660     3.875858    -3.977900
 H     2.451256     2.491135     0.818602
 C     4.411321     1.810435     0.320665
 H     4.283225     1.946733    -0.763622
 H     5.046527     0.918681     0.458722
 C     5.113039     3.016370     0.939442
 H     6.103220     3.155778     0.475783
 H     4.531683     3.927865     0.710401
 C     5.245908     2.870253     2.451327
 H     5.724095     3.763931     2.884060
 H     5.917517     2.020871     2.674323
 C     3.891853     2.621694     3.106760
 H     3.253989     3.514764     2.978232
 H     4.008974     2.478633     4.193147
 C     3.180001     1.417546     2.496788
 H     3.747028     0.501818     2.734594
 H     2.181718     1.296805     2.942245
 H     2.100185    -1.921040    -0.423820
 C     3.661584    -1.728790     1.034823
 H     3.011090    -1.733906     1.923471
 H     4.499712    -1.049862     1.267156
 C     4.214726    -3.126169     0.774365
 H     4.758329    -3.489025     1.661702
 H     3.370471    -3.821454     0.616680
 C     5.120412    -3.139769    -0.451887
 H     5.481069    -4.161844    -0.652090
 H     6.018226    -2.529652    -0.242715
 C     4.405704    -2.578014    -1.675980
 H     3.575717    -3.251807    -1.951736
 H     5.088778    -2.550563    -2.540794
 C     3.837237    -1.184946    -1.419308
 H     4.662870    -0.472417    -1.259165
 H     3.282427    -0.827367    -2.297129
