 106
scf done:    -3737.443672
 C     1.130441     2.569952    -2.267649
 H     1.729156     3.398361    -1.873139
 H     1.667109     1.911393    -2.957140
 C    -0.268541     2.713210    -2.379222
 H    -0.745386     3.650943    -2.074534
 H    -0.797154     2.184797    -3.178954
 H     0.108430     0.353874    -1.775533
Co     0.200873     1.497489    -0.830012
 O     2.580075    -0.315760    -1.720826
 C     3.292892     1.206810     0.486472
 C     1.650307    -1.160354     0.705650
 O    -1.473290    -0.864727     0.381112
 C    -2.792928     1.495766     0.778077
 C    -2.751126     0.213788    -1.804491
 P    -1.658323     0.635408    -0.385055
 P     1.886293     0.334947    -0.326382
 C     0.266006     2.649938     0.480050
 O     0.302044     3.364909     1.383017
 C     3.860584    -0.767159    -1.811575
 C     4.168453    -2.101557    -1.541236
 H     3.363388    -2.788276    -1.273743
 C     4.877806     0.105039    -2.208394
 H     4.620684     1.135904    -2.459912
 C     5.490630    -2.535846    -1.605382
 H     5.720032    -3.581221    -1.380564
 C     6.193523    -0.341454    -2.265301
 H     6.981181     0.356061    -2.564446
 C     6.530307    -1.664089    -1.947588
 C     7.960531    -2.120704    -1.965324
 H     8.499421    -1.727210    -2.840403
 H     8.033669    -3.217278    -1.986033
 H     8.499318    -1.770723    -1.068758
 H     3.696406     1.876762    -0.291912
 H     2.819865     1.878994     1.222088
 C     4.407899     0.398736     1.142821
 H     4.032209    -0.060997     2.072738
 H     4.716250    -0.437044     0.497751
 C     5.637946     1.239947     1.452233
 H     5.367651     2.066524     2.134656
 H     5.983711     1.719655     0.518383
 C     6.781618     0.431459     2.047957
 H     6.437559    -0.055996     2.977505
 H     7.031546    -0.390994     1.353898
 C     8.024496     1.258915     2.332197
 H     8.833701     0.646471     2.758373
 H     7.810667     2.070491     3.046327
 H     8.410519     1.726512     1.411882
 H     0.923138    -1.773885     0.151101
 H     2.593130    -1.725493     0.779294
 C     1.088964    -0.820436     2.080948
 H     1.868887    -0.353730     2.708042
 H     0.294837    -0.066252     1.958595
 C     0.502714    -2.027574     2.797566
 H     1.293987    -2.776736     2.983481
 H    -0.225599    -2.514984     2.127007
 C    -0.188727    -1.676811     4.106687
 H     0.541624    -1.224488     4.801046
 H    -0.937856    -0.888963     3.909890
 C    -0.864679    -2.867689     4.766374
 H    -1.353825    -2.588035     5.712076
 H    -0.138746    -3.665783     4.991219
 H    -1.633788    -3.298938     4.105102
 C    -2.433638    -1.810986     0.561135
 C    -2.567798    -2.845901    -0.368427
 H    -1.899039    -2.870224    -1.231084
 C    -3.250698    -1.795997     1.692966
 H    -3.114277    -1.010484     2.438078
 C    -3.544837    -3.819157    -0.189653
 H    -3.643440    -4.618070    -0.930136
 C    -4.222976    -2.779782     1.860729
 H    -4.858925    -2.753533     2.749961
 C    -4.401333    -3.799502     0.919313
 C    -5.477368    -4.833882     1.081119
 H    -6.335097    -4.620480     0.421515
 H    -5.855203    -4.864555     2.112854
 H    -5.112741    -5.839356     0.822304
 H    -3.684040     0.875907     0.966612
 H    -2.242120     1.575221     1.730816
 C    -3.192278     2.881364     0.285885
 H    -2.286563     3.459526     0.039872
 H    -3.754641     2.794635    -0.660588
 C    -4.026998     3.654455     1.296804
 H    -3.457033     3.746160     2.239085
 H    -4.933253     3.073419     1.548193
 C    -4.430445     5.040381     0.813902
 H    -3.519845     5.611239     0.560336
 H    -4.994557     4.944279    -0.130932
 C    -5.256437     5.816200     1.826956
 H    -5.531934     6.812721     1.449834
 H    -4.701751     5.958708     2.768352
 H    -6.189592     5.284256     2.073598
 H    -2.642886     1.052579    -2.510713
 H    -2.247680    -0.637197    -2.294180
 C    -4.222673    -0.091912    -1.548476
 H    -4.338091    -0.754059    -0.676947
 H    -4.756535     0.839209    -1.292696
 C    -4.900764    -0.751615    -2.740770
 H    -4.345783    -1.671085    -3.002246
 H    -4.827569    -0.093553    -3.625870
 C    -6.357896    -1.106095    -2.480841
 H    -6.410049    -1.759795    -1.591733
 H    -6.912489    -0.189788    -2.210875
 C    -7.035031    -1.786925    -3.659031
 H    -8.084885    -2.033526    -3.439054
 H    -6.521840    -2.724972    -3.925939
 H    -7.025277    -1.142986    -4.553203
