 110
scf done:    -4561.907965
 C     0.775805     0.855205    -3.059670
 H     1.469535     1.678769    -3.258743
 H     1.142448    -0.119322    -3.395922
 C    -0.610400     1.101198    -3.014446
 H    -0.968048     2.120158    -3.198185
 H    -1.319023     0.324667    -3.320226
 H    -0.087883    -0.656860    -1.361323
Co     0.111320     0.779266    -1.143642
 C     2.460972    -1.543865    -1.538771
 C     3.428868     0.904529    -0.299681
 C     2.011038    -0.912018     1.231240
 C    -1.759252    -0.128071     1.629310
 C    -2.951111     1.809083    -0.016943
 C    -2.856432    -0.845292    -0.972038
 P    -1.759443     0.396554    -0.146376
 P     1.921779    -0.154732    -0.443252
 C     0.293864     2.430395    -0.581424
 O     0.364897     3.508303    -0.178942
 C     1.779833    -2.776482    -1.463447
 O     0.767791    -2.830682    -0.581241
 C     0.160247    -4.054151    -0.279764
 H    -0.558196    -3.836610     0.516690
 H    -0.382967    -4.465606    -1.148339
 H     0.898715    -4.795996     0.070834
 C     3.446310    -1.408061    -2.537676
 O     3.978765    -0.186930    -2.695815
 C     5.066311     0.012181    -3.549410
 H     5.356745     1.064039    -3.430574
 H     4.800818    -0.171731    -4.605412
 H     5.922965    -0.628093    -3.276358
 C     3.821165    -2.496660    -3.338325
 H     4.599831    -2.385627    -4.091754
 C     2.144582    -3.867439    -2.261988
 H     1.621512    -4.818841    -2.175535
 C     3.173036    -3.715336    -3.184416
 H     3.463232    -4.561624    -3.811680
 C     4.572451     0.475575     0.389391
 H     4.576697    -0.498759     0.882786
 C     3.459571     2.161029    -0.899643
 H     2.588253     2.504978    -1.457131
 C     5.704931     1.271345     0.463373
 H     6.596838     0.942979     1.000773
 C     4.586826     2.979367    -0.828974
 H     4.563140     3.959035    -1.307126
 C     5.722644     2.534211    -0.145076
 O     6.863517     3.244595    -0.016755
 C     6.927624     4.519440    -0.587731
 H     6.167300     5.199719    -0.164375
 H     7.925001     4.917891    -0.361129
 H     6.798159     4.487931    -1.684606
 C     1.513772    -0.139761     2.288287
 H     1.054144     0.825655     2.065423
 C     2.610071    -2.134222     1.535211
 H     3.034556    -2.747979     0.737349
 C     1.601189    -0.577792     3.600201
 H     1.206902     0.017064     4.424836
 C     2.694544    -2.596121     2.849566
 H     3.164818    -3.560503     3.044644
 C     2.182443    -1.817325     3.892513
 O     2.206796    -2.175079     5.195307
 C     2.782295    -3.399912     5.543082
 H     3.850488    -3.449154     5.264957
 H     2.697318    -3.492084     6.633689
 H     2.258110    -4.251352     5.072439
 C    -2.066014    -1.411215     2.111320
 O    -2.256659    -2.387510     1.201551
 C    -3.085572    -3.473137     1.511002
 H    -3.296719    -3.979442     0.559425
 H    -2.599558    -4.188562     2.198242
 H    -4.036807    -3.137633     1.957390
 C    -1.455207     0.868034     2.582381
 O    -1.049595     2.041977     2.068763
 C    -0.946864     3.180943     2.877237
 H    -0.653173     3.998141     2.207835
 H    -0.174823     3.059659     3.656708
 H    -1.912964     3.420970     3.352892
 C    -1.577302     0.636601     3.954011
 H    -1.371569     1.428849     4.673017
 C    -2.167460    -1.661323     3.487517
 H    -2.413891    -2.660392     3.846243
 C    -1.936101    -0.634541     4.392175
 H    -2.017536    -0.831931     5.463509
 C    -3.905711     1.931918     1.006219
 H    -3.949404     1.185757     1.803354
 C    -2.928628     2.794865    -1.001071
 H    -2.191190     2.724073    -1.800219
 C    -4.793268     2.996264     1.039773
 H    -5.531506     3.094974     1.838254
 C    -3.817452     3.870607    -0.986750
 H    -3.756693     4.618377    -1.777812
 C    -4.758602     3.978906     0.040034
 O    -5.656555     4.979506     0.153326
 C    -5.662304     5.987947    -0.816416
 H    -5.875086     5.589027    -1.824238
 H    -6.458957     6.689697    -0.537860
 H    -4.702285     6.533273    -0.849276
 C    -2.318342    -1.830334    -1.811567
 H    -1.239413    -1.845671    -1.981712
 C    -4.239284    -0.844181    -0.781638
 H    -4.704855    -0.081014    -0.156225
 C    -3.121616    -2.787699    -2.410906
 H    -2.699098    -3.551071    -3.067665
 C    -5.064553    -1.799635    -1.376781
 H    -6.139671    -1.754518    -1.200349
 C    -4.506687    -2.785215    -2.196682
 O    -5.213045    -3.753075    -2.817912
 C    -6.602280    -3.778097    -2.658031
 H    -7.076629    -2.852632    -3.030098
 H    -6.973241    -4.627273    -3.246278
 H    -6.894000    -3.922298    -1.602105
