  92
scf done:    -3953.858177
 C     1.669512    -2.589671    -1.555284
 H     2.182557    -2.107944    -2.391778
 H     2.330582    -3.195963    -0.928271
 C     0.304383    -2.913959    -1.651668
 H    -0.260064    -2.666371    -2.554706
 H    -0.091983    -3.776675    -1.105902
 H     0.264691    -0.502441    -1.715144
Co     0.541436    -1.276641    -0.472635
 O    -1.788198     0.798514    -0.941861
 C    -2.623095    -1.774826    -1.193237
 C    -2.259338    -0.513652     1.426246
 O     2.835177     0.218093     1.213144
 C     2.966473     0.985737    -1.412280
 C     1.064127     1.974925     0.488323
 P     1.804766     0.397835    -0.108796
 P    -1.493755    -0.700867    -0.235484
 C     0.830343    -2.176860     1.005624
 O     1.016384    -2.805787     1.947157
 C    -2.727066     1.734134    -0.619734
 C    -3.678977     2.088161    -1.580252
 H    -3.675432     1.580850    -2.545800
 C    -2.702448     2.389738     0.613355
 H    -1.932358     2.139416     1.342007
 C    -4.617310     3.077788    -1.296529
 H    -5.358186     3.348477    -2.052683
 C    -3.652065     3.369262     0.890255
 H    -3.626114     3.874125     1.858821
 C    -4.615654     3.714993    -0.056214
 H    -5.356282     4.486042     0.167285
 C    -3.000947    -1.360808    -2.474706
 H    -2.677142    -0.380762    -2.828104
 C    -2.970828    -3.065966    -0.742480
 C    -2.557600    -3.589657     0.601754
 H    -3.153581    -3.146576     1.415378
 H    -1.506592    -3.355211     0.823097
 H    -2.680899    -4.680363     0.648802
 C    -3.761648    -2.183024    -3.300698
 H    -4.050679    -1.839286    -4.296680
 C    -3.736531    -3.874953    -1.589379
 H    -4.014641    -4.875311    -1.245951
 C    -4.140410    -3.444845    -2.850795
 H    -4.736704    -4.103423    -3.486668
 C    -1.334000    -0.330849     2.462112
 H    -0.270913    -0.350178     2.220758
 C    -3.644549    -0.453548     1.714011
 C    -4.734202    -0.606991     0.693246
 H    -4.878257    -1.660055     0.406731
 H    -4.523792    -0.055320    -0.230552
 H    -5.684108    -0.233860     1.099640
 C    -1.734202    -0.102665     3.773549
 H    -0.986991     0.040602     4.557000
 C    -4.023693    -0.231859     3.044288
 H    -5.090470    -0.181143     3.277795
 C    -3.093553    -0.058767     4.065105
 H    -3.435657     0.117340     5.087941
 C     3.680041    -0.829557     1.402983
 C     3.957737    -1.182826     2.726543
 H     3.466940    -0.629854     3.529557
 C     4.287653    -1.520870     0.352092
 H     4.082504    -1.237851    -0.680320
 C     4.833959    -2.228230     2.996302
 H     5.041434    -2.501148     4.033776
 C     5.158959    -2.571724     0.636239
 H     5.626944    -3.111463    -0.190611
 C     5.436581    -2.932135     1.952712
 H     6.119265    -3.757248     2.166264
 C     2.744063     0.512772    -2.710596
 H     1.896629    -0.154873    -2.876763
 C     4.035270     1.879386    -1.167236
 C     4.364002     2.446343     0.183058
 H     4.835874     1.689113     0.827117
 H     3.469155     2.798507     0.712777
 H     5.062669     3.287909     0.079777
 C     3.549778     0.898513    -3.776020
 H     3.348193     0.520014    -4.780545
 C     4.836666     2.249402    -2.255638
 H     5.664632     2.941349    -2.078997
 C     4.608344     1.771428    -3.542710
 H     5.257119     2.087483    -4.363324
 C     1.042846     2.211347     1.870470
 H     1.481298     1.471589     2.540751
 C     0.504101     2.927449    -0.390133
 C     0.435263     2.743649    -1.877550
 H     0.199970     1.705177    -2.143229
 H     1.387535     3.011376    -2.361343
 H    -0.354033     3.382314    -2.298309
 C     0.511410     3.385953     2.394298
 H     0.511320     3.548311     3.474627
 C    -0.010457     4.107462     0.161773
 H    -0.446836     4.848201    -0.513238
 C    -0.004378     4.348665     1.531139
 H    -0.419800     5.280163     1.922842
