 100
scf done:    -4182.833684
 C     0.218274     2.307981    -2.725320
 H     0.966565     3.092103    -2.572177
 H     0.489185     1.586439    -3.502486
 C    -1.136059     2.563829    -2.449168
 H    -1.424639     3.556145    -2.086501
 H    -1.915498     2.041959    -3.010859
 H    -0.742692     0.296008    -1.876319
Co    -0.329197     1.386211    -0.993940
 C     1.641078    -1.173021    -2.016474
 O     2.938861     0.982721    -1.425683
 O     1.833518    -0.219144     0.559707
 C    -1.077211    -0.173922     1.845180
 O    -3.121671     0.964790     0.841084
 O    -2.208698    -1.074790    -0.464230
 P    -1.705688     0.355878     0.218122
 P     1.477681     0.311694    -0.967280
 C    -0.069807     2.657742     0.208129
 O     0.022015     3.455478     1.026966
 C     0.572422    -2.078892    -2.029978
 H    -0.357059    -1.849022    -1.503605
 C     2.805659    -1.464643    -2.730076
 H     3.627683    -0.748545    -2.713873
 C     0.700660    -3.279038    -2.722263
 H    -0.125662    -3.993868    -2.722268
 C     2.937245    -2.660959    -3.444390
 C     4.188095    -2.944408    -4.224351
 H     4.178379    -2.411561    -5.189589
 H     5.083549    -2.610992    -3.679116
 H     4.296176    -4.016792    -4.440245
 C     1.873125    -3.568527    -3.419655
 H     1.962074    -4.514586    -3.961124
 C     3.642357     1.926142    -0.723465
 C     3.085819     3.167173    -0.421232
 H     2.078655     3.390623    -0.765372
 C     4.963849     1.614712    -0.358571
 C     5.591745     0.315941    -0.759766
 H     4.991388    -0.545976    -0.435325
 H     5.689619     0.249975    -1.855553
 H     6.594708     0.218009    -0.323529
 C     3.815901     4.103016     0.307386
 H     3.363139     5.066046     0.552969
 C     5.674474     2.574067     0.368683
 H     6.699661     2.343072     0.670489
 C     5.112326     3.801868     0.714872
 H     5.692544     4.525211     1.291876
 C     2.873966    -0.928026     1.086297
 C     3.228088    -2.192414     0.616243
 H     2.687418    -2.629718    -0.222245
 C     3.509512    -0.352160     2.200165
 C     3.050641     0.972763     2.721290
 H     3.212147     1.772019     1.982065
 H     1.971136     0.951435     2.935256
 H     3.588914     1.240366     3.640405
 C     4.269391    -2.887423     1.230447
 H     4.550424    -3.874949     0.857448
 C     4.546208    -1.074830     2.795217
 H     5.055564    -0.641371     3.660221
 C     4.936097    -2.326397     2.316252
 H     5.752724    -2.866191     2.800856
 C    -1.206124     0.667656     2.952769
 H    -1.768993     1.599197     2.871052
 C    -0.356243    -1.366559     1.961352
 H    -0.241347    -2.015551     1.089133
 C    -0.620405     0.301349     4.163522
 H    -0.723317     0.953720     5.034027
 C     0.232062    -1.747186     3.169337
 C     1.019112    -3.019417     3.285845
 H     0.732143    -3.586749     4.184496
 H     0.873176    -3.664638     2.408723
 H     2.097920    -2.805462     3.358491
 C     0.088077    -0.891767     4.270253
 H     0.543464    -1.168315     5.225327
 C    -4.194632     1.526675     0.198812
 C    -4.040876     2.425892    -0.850962
 H    -3.033969     2.677031    -1.173698
 C    -5.464324     1.181638     0.690724
 C    -5.602530     0.253304     1.855535
 H    -5.288301    -0.766844     1.590018
 H    -4.961609     0.570087     2.691912
 H    -6.643911     0.213054     2.202544
 C    -5.165762     2.968919    -1.468933
 H    -5.039149     3.668309    -2.298644
 C    -6.573384     1.743877     0.053064
 H    -7.570645     1.483557     0.418316
 C    -6.437560     2.620752    -1.022941
 H    -7.325517     3.039645    -1.501595
 C    -3.334000    -1.801275    -0.151821
 C    -3.401357    -2.571385     1.007851
 H    -2.570209    -2.554211     1.712236
 C    -4.379054    -1.789636    -1.089821
 C    -4.272913    -0.967027    -2.335944
 H    -4.399336     0.105157    -2.113976
 H    -3.283227    -1.080170    -2.802426
 H    -5.046046    -1.252897    -3.061708
 C    -4.534967    -3.342373     1.257542
 H    -4.588890    -3.942856     2.168370
 C    -5.504494    -2.570717    -0.810153
 H    -6.330187    -2.573253    -1.526699
 C    -5.590924    -3.339682     0.349149
 H    -6.483261    -3.940029     0.539866
