  96
scf done:    -3730.701939
 C    -1.974693    -1.461963    -1.895900
 H    -2.027765    -2.469429    -2.317964
 H    -2.919920    -1.110280    -1.466146
 C    -1.050582    -0.523990    -2.392218
 H    -0.386618    -0.791601    -3.219978
 H    -1.287323     0.541794    -2.334089
 H     0.312325    -2.253284    -1.497900
Co    -0.393506    -1.304941    -0.637376
 C    -2.359517     1.425794     0.002819
 O    -2.609376    -0.514018     1.689363
 O    -0.373170     0.766927     1.724433
 C     2.431889    -0.207353     0.944378
 O     2.629724    -0.818720    -1.676411
 O     1.428045     1.276507    -1.095732
 P     1.467313    -0.301945    -0.617844
 P    -1.415233     0.032861     0.699355
 C    -0.389348    -2.809168     0.198060
 O    -0.312340    -3.874145     0.643668
 C    -1.639100     2.444800    -0.634028
 H    -0.548626     2.390370    -0.677366
 C    -3.754091     1.476690     0.037375
 H    -4.299718     0.680597     0.548734
 C    -2.323883     3.506948    -1.214706
 H    -1.766442     4.307031    -1.708046
 C    -4.453050     2.535968    -0.555164
 C    -5.954068     2.560917    -0.537536
 H    -6.366835     1.892853    -1.311659
 H    -6.350051     2.218232     0.429962
 H    -6.344464     3.570290    -0.730228
 C    -3.717462     3.550382    -1.176124
 H    -4.246116     4.388698    -1.638633
 C    -2.433251    -1.621303     2.556927
 H    -1.540044    -2.199749     2.269933
 H    -2.262110    -1.234898     3.576614
 C    -3.665952    -2.497970     2.518488
 H    -3.567784    -3.263108     3.308483
 H    -4.539774    -1.880318     2.792398
 C    -3.901772    -3.164626     1.170464
 H    -3.049985    -3.826112     0.941154
 H    -3.895565    -2.390310     0.386244
 C    -5.199955    -3.951823     1.113069
 H    -5.219709    -4.752003     1.870882
 H    -6.071295    -3.302865     1.299354
 H    -5.342107    -4.424187     0.129374
 C    -0.744777     1.718527     2.708861
 H    -1.577629     2.342373     2.337484
 H    -1.099951     1.186520     3.608000
 C     0.465170     2.569053     3.026761
 H     0.207431     3.231681     3.871903
 H     1.276380     1.906765     3.377181
 C     0.952558     3.390342     1.841443
 H     0.129083     4.033093     1.482609
 H     1.185834     2.701644     1.014014
 C     2.168617     4.240825     2.165523
 H     1.954951     4.967963     2.965946
 H     3.007591     3.614541     2.506377
 H     2.512765     4.807946     1.286660
 C     2.161391    -1.132615     1.952641
 H     1.373330    -1.873299     1.805374
 C     3.426557     0.756437     1.150237
 H     3.636987     1.497303     0.375988
 C     2.882701    -1.096308     3.144678
 H     2.666472    -1.820621     3.933757
 C     4.160157     0.806135     2.338076
 C     5.240736     1.828294     2.544182
 H     5.275932     2.550430     1.716662
 H     5.088880     2.390769     3.478615
 H     6.230684     1.349008     2.613851
 C     3.870112    -0.135238     3.335831
 H     4.429381    -0.110456     4.275619
 C     3.629082    -1.778182    -1.376307
 H     4.367800    -1.686618    -2.189296
 H     4.136478    -1.509203    -0.433526
 C     3.102789    -3.197567    -1.302018
 H     3.948291    -3.855445    -1.033394
 H     2.385740    -3.275814    -0.466957
 C     2.450458    -3.681090    -2.588849
 H     3.207325    -3.701957    -3.393300
 H     1.697845    -2.937703    -2.899632
 C     1.796254    -5.044940    -2.446303
 H     2.527635    -5.814035    -2.148607
 H     1.008882    -5.023629    -1.676271
 H     1.333502    -5.372984    -3.389413
 C     2.395457     1.930817    -1.905117
 H     2.467050     2.961936    -1.517925
 H     3.379354     1.451521    -1.795219
 C     1.986979     1.929060    -3.364044
 H     2.809246     2.377970    -3.949877
 H     1.909202     0.878404    -3.691084
 C     0.685569     2.665405    -3.643109
 H     0.798801     3.725635    -3.351772
 H    -0.099237     2.253061    -2.991365
 C     0.240765     2.570426    -5.092543
 H     0.996728     2.987649    -5.777721
 H     0.074101     1.521084    -5.384207
 H    -0.700986     3.113894    -5.262759
