  98
scf done:    -3881.110581
 C    -2.586466     1.004809     2.070703
 H    -2.747388     2.045224     2.372179
 H    -3.429268     0.557327     1.535634
 C    -1.733695     0.181667     2.835208
 H    -1.240069     0.593021     3.721591
 H    -1.927416    -0.893671     2.892262
 H    -1.486511    -0.493616     0.532854
Co    -0.842487     0.705888     1.093344
 O    -2.852301     0.746403    -1.405758
 O    -1.584868     2.821448    -1.289249
 O    -0.357106     0.799702    -1.987067
 O     1.950939    -0.145168    -0.080223
 O     1.608384    -1.138462     2.244867
 O     0.423281    -2.096576     0.305892
 P     0.743563    -0.641420     0.945735
 P    -1.377994     1.273344    -0.823416
 C     0.007518     2.156254     1.604342
 O     0.565630     3.110994     1.913883
 C    -3.277419    -0.547080    -1.299528
 C    -4.527567    -0.794047    -0.734904
 H    -5.118235     0.049057    -0.371266
 C    -2.509969    -1.612005    -1.778356
 H    -1.525121    -1.418404    -2.204367
 C    -5.006003    -2.099316    -0.652900
 H    -5.989349    -2.279741    -0.209775
 C    -3.004733    -2.908488    -1.690877
 H    -2.392988    -3.733302    -2.066853
 C    -4.255944    -3.181681    -1.125874
 C    -4.753306    -4.592109    -0.998996
 H    -4.505421    -5.189546    -1.889049
 H    -5.843194    -4.625667    -0.859090
 H    -4.294492    -5.096453    -0.131442
 C    -2.657084     3.632812    -0.822132
 H    -2.993630     4.213767    -1.696272
 H    -3.500445     2.997024    -0.508266
 C    -2.225524     4.561014     0.293849
 H    -3.095200     5.187920     0.559986
 H    -1.994250     3.965228     1.191733
 C    -1.035752     5.440301    -0.062008
 H    -1.288482     6.050669    -0.947670
 H    -0.198887     4.792124    -0.368531
 C    -0.596549     6.337415     1.082892
 H    -1.410996     7.004756     1.409014
 H    -0.286218     5.736961     1.952042
 H     0.256987     6.969835     0.795481
 C    -0.411202     1.262544    -3.336419
 H    -0.191936     0.382706    -3.963749
 H    -1.429079     1.607398    -3.576697
 C     0.610654     2.356911    -3.563865
 H     0.555842     2.660177    -4.624808
 H     0.310811     3.235378    -2.969125
 C     2.031129     1.945300    -3.201989
 H     2.335486     1.087132    -3.827508
 H     2.036849     1.574929    -2.164260
 C     3.035745     3.074741    -3.354535
 H     3.073428     3.449186    -4.390787
 H     2.774483     3.927435    -2.706936
 H     4.050716     2.749494    -3.080408
 C     2.822086    -1.017663    -0.681224
 C     2.513300    -1.520948    -1.945207
 H     1.565982    -1.230886    -2.401363
 C     4.013646    -1.377607    -0.057828
 H     4.239328    -0.986146     0.934561
 C     3.405957    -2.374446    -2.582530
 H     3.156788    -2.765331    -3.573366
 C     4.899261    -2.233959    -0.711182
 H     5.834908    -2.510478    -0.217196
 C     4.616838    -2.745812    -1.981080
 C     5.582953    -3.648552    -2.692761
 H     6.090712    -3.118771    -3.515807
 H     5.071699    -4.517278    -3.135289
 H     6.360511    -4.023289    -2.012148
 C     1.736362    -0.411331     3.457000
 H     0.986788     0.397314     3.484522
 H     1.495748    -1.113822     4.270818
 C     3.137591     0.138797     3.625515
 H     3.257898     0.449103     4.678500
 H     3.851822    -0.689473     3.469894
 C     3.470016     1.305501     2.704629
 H     2.824390     2.161828     2.961637
 H     3.208856     1.041807     1.667004
 C     4.929752     1.721684     2.772656
 H     5.221338     2.009113     3.796007
 H     5.595012     0.899464     2.461331
 H     5.134846     2.579114     2.114443
 C     0.655805    -3.360816     0.913922
 H     0.591813    -4.085464     0.087102
 H     1.675687    -3.399943     1.324643
 C    -0.372307    -3.674827     1.983369
 H    -0.142408    -4.676164     2.389703
 H    -0.238696    -2.968517     2.821052
 C    -1.808982    -3.624413     1.485847
 H    -1.931492    -4.350285     0.663159
 H    -1.996863    -2.637276     1.033744
 C    -2.838607    -3.895725     2.568825
 H    -2.710003    -4.895751     3.014502
 H    -2.761300    -3.160214     3.386094
 H    -3.862431    -3.833112     2.169328
