 118
scf done:    -4118.597541
 C    -0.657509    -0.424120    -3.356707
 H    -1.136164    -1.365785    -3.652705
 H    -1.260756     0.461984    -3.563135
 C     0.756355    -0.321585    -3.371874
 H     1.359684    -1.186634    -3.672986
 H     1.221221     0.636698    -3.619962
 H    -0.010451     1.076705    -1.589870
Co     0.067506    -0.399237    -1.483892
 C    -2.262310     1.581652     0.129658
 C    -3.262799    -0.772248    -1.245120
 C    -1.795619    -1.071207     1.348690
 C     2.360092    -1.256488     0.820120
 C     3.314002     0.478385    -1.341792
 C     1.650787     1.621309     0.853913
 P     1.797842     0.144643    -0.282970
 P    -1.756600    -0.168251    -0.293315
 C     0.222452    -2.139548    -1.470117
 O     0.326002    -3.282717    -1.590248
 C    -2.210362     2.199118     1.398430
 O    -1.677032     1.497770     2.424788
 C    -1.758321     1.991143     3.730093
 H    -1.362077     1.202794     4.382913
 H    -1.152071     2.903945     3.866021
 H    -2.800267     2.203879     4.024471
 C    -2.681972     2.409582    -0.941128
 O    -2.666111     1.852080    -2.165153
 C    -3.076879     2.588431    -3.281150
 H    -2.965982     1.923000    -4.146902
 H    -2.446706     3.480772    -3.436084
 H    -4.132811     2.900297    -3.200503
 C    -3.104880     3.729303    -0.750010
 H    -3.435739     4.332828    -1.593311
 C    -2.658678     3.512132     1.602401
 H    -2.627473     3.956045     2.595730
 C    -3.105932     4.265711     0.529663
 H    -3.444850     5.291602     0.689994
 H    -3.037236    -0.372682    -2.243776
 C    -4.646639    -0.245584    -0.860557
 H    -4.634552     0.846921    -0.739307
 H    -4.958723    -0.658452     0.111497
 C    -5.672467    -0.642053    -1.919650
 H    -6.671874    -0.270034    -1.639021
 H    -5.411770    -0.147244    -2.873341
 C    -5.706778    -2.151844    -2.129693
 H    -6.420754    -2.415869    -2.927224
 H    -6.080453    -2.633230    -1.207273
 C    -4.321164    -2.700846    -2.449702
 H    -3.991926    -2.315929    -3.431763
 H    -4.353627    -3.798951    -2.541424
 C    -3.296245    -2.294063    -1.393939
 H    -3.567308    -2.765178    -0.433886
 H    -2.303328    -2.678793    -1.667530
 H    -1.107553    -0.468313     1.957373
 C    -1.175600    -2.470428     1.301404
 H    -0.164004    -2.409692     0.880903
 H    -1.750421    -3.144108     0.647288
 C    -1.094230    -3.074371     2.700820
 H    -0.669422    -4.089429     2.642678
 H    -0.380432    -2.480228     3.296633
 C    -2.440335    -3.087605     3.412593
 H    -2.336138    -3.499199     4.430334
 H    -3.132916    -3.760552     2.874809
 C    -3.041365    -1.688610     3.455422
 H    -2.399546    -1.035234     4.074541
 H    -4.031358    -1.704261     3.940912
 C    -3.152045    -1.101098     2.052546
 H    -3.847916    -1.729827     1.472904
 H    -3.596251    -0.095428     2.088393
 C     2.118893    -1.379703     2.205865
 O     1.475923    -0.362605     2.826511
 C     1.421424    -0.318834     4.222462
 H     0.984548     0.653473     4.484262
 H     0.783517    -1.117885     4.639158
 H     2.426025    -0.389743     4.673485
 C     2.916098    -2.393913     0.184625
 O     3.084369    -2.300420    -1.147933
 C     3.494347    -3.414818    -1.889213
 H     3.496544    -3.098847    -2.940268
 H     2.789764    -4.254008    -1.770573
 H     4.512095    -3.739101    -1.611079
 C     3.273124    -3.548069     0.888658
 H     3.703856    -4.402036     0.368668
 C     2.494768    -2.523539     2.922927
 H     2.311213    -2.587089     3.994146
 C     3.070049    -3.597479     2.260478
 H     3.351073    -4.492439     2.820022
 H     3.174172    -0.284485    -2.120361
 C     4.704402     0.256334    -0.743590
 H     4.754594    -0.692674    -0.192630
 H     4.938100     1.049520    -0.015505
 C     5.752957     0.274531    -1.853420
 H     6.759835     0.123346    -1.429921
 H     5.567738    -0.579424    -2.530349
 C     5.704747     1.572742    -2.652983
 H     6.429871     1.542660    -3.482979
 H     6.018161     2.406807    -1.998516
 C     4.301991     1.859252    -3.178938
 H     4.027948     1.100817    -3.934238
 H     4.277979     2.834227    -3.693312
 C     3.269737     1.830699    -2.055039
 H     3.501434     2.640841    -1.343410
 H     2.261127     2.029000    -2.447235
 H     0.901297     1.283362     1.584420
 C     1.063572     2.877452     0.201490
 H     0.129640     2.624053    -0.317882
 H     1.745766     3.280094    -0.561299
 C     0.817046     3.954576     1.254249
 H     0.396274     4.854628     0.777382
 H     0.046741     3.595234     1.955870
 C     2.077726     4.294823     2.038725
 H     1.861200     5.052335     2.810513
 H     2.821942     4.748552     1.358922
 C     2.677977     3.043215     2.666676
 H     1.979727     2.646246     3.426244
 H     3.613535     3.284205     3.198404
 C     2.932203     1.971125     1.612325
 H     3.677421     2.360918     0.899349
 H     3.376607     1.074895     2.069278
