  52
scf done:    -3030.369284
 C     4.150115     0.695254    -0.460034
 H     4.762938     0.723673     0.447497
 H     4.452281    -0.081726    -1.169588
 C     3.566115     1.893493    -0.942453
 H     3.729336     2.830231    -0.398090
 H     3.426508     2.029074    -2.019965
 H     2.053199     0.063181    -1.450619
Co     2.173718     0.703713    -0.116245
 O     0.231182    -1.654041    -0.638691
 C     2.728522    -2.626946    -0.192875
 C     1.116116    -1.757784     1.962421
 O    -0.890180     1.213188     0.375279
 C     0.282559     3.457827    -0.653395
 C    -0.326366     1.244795    -2.314648
 P     0.368052     1.633758    -0.677185
 P     1.603209    -1.268744     0.270630
 C     2.244403     1.313767     1.526496
 O     2.265314     1.685692     2.613647
 C    -0.656581    -2.640207    -0.330858
 C    -1.741505    -2.354530     0.503308
 H    -1.832835    -1.348229     0.915914
 C    -0.518138    -3.912467    -0.890938
 H     0.321895    -4.108527    -1.560034
 C    -2.678385    -3.346436     0.780997
 H    -3.525979    -3.117767     1.431641
 C    -1.461326    -4.898683    -0.606033
 H    -1.352148    -5.892099    -1.048053
 C    -2.541045    -4.621761     0.231696
 H    -3.278263    -5.397042     0.451431
 H     3.655216    -2.522742     0.390846
 H     2.284923    -3.615474    -0.001371
 H     2.979310    -2.526936    -1.257928
 H     0.344837    -1.065158     2.327323
 H     0.748218    -2.791957     2.029614
 H     2.006717    -1.642619     2.598803
 C    -2.180553     1.635962     0.250818
 C    -3.086984     0.911434    -0.529312
 H    -2.740458     0.021464    -1.057324
 C    -2.611952     2.761925     0.957469
 H    -1.893926     3.299886     1.579389
 C    -4.415752     1.323317    -0.607004
 H    -5.120385     0.751411    -1.215693
 C    -3.942470     3.166017     0.872951
 H    -4.274667     4.045581     1.429830
 C    -4.848158     2.452009     0.088599
 H    -5.890838     2.770766     0.025289
 H    -0.715951     3.841514    -0.911383
 H     0.573108     3.819519     0.343315
 H     1.018864     3.833506    -1.379345
 H    -0.432132     0.153344    -2.383389
 H    -1.289927     1.740913    -2.500679
 H     0.408644     1.570085    -3.065607
