 108
scf done:    -4039.183288
 C    -0.295324     2.886259    -2.113376
 H    -0.842816     2.887297    -3.061858
 H    -0.751301     3.519452    -1.346568
 C     1.098285     2.656579    -2.115425
 H     1.609322     2.470913    -3.067061
 H     1.735469     3.131948    -1.363999
 H     0.058194     1.697156    -0.069712
Co     0.104523     1.043717    -1.404324
 C    -3.098554     1.533182    -0.614867
 C    -2.505826    -1.136112    -1.411062
 C    -1.506549    -0.370575     1.203447
 C     1.464607    -1.943784    -0.612637
 C     3.285261     0.060257    -1.618303
 C     2.367557     0.089004     1.142215
 P     1.742203    -0.117735    -0.593646
 P    -1.720303     0.317471    -0.528881
 C    -0.066338     0.255839    -2.951839
 O    -0.230966    -0.242564    -3.978371
 C    -3.848266     2.048127     0.444645
 H    -3.656146     1.744299     1.469751
 C    -3.401165     1.960348    -1.918485
 H    -2.802758     1.586702    -2.754159
 C    -4.882024     2.952169     0.190565
 H    -5.464601     3.342008     1.028890
 C    -4.437546     2.852591    -2.187944
 C    -4.726112     3.301861    -3.590947
 H    -5.805921     3.288426    -3.803601
 H    -4.376123     4.334752    -3.752508
 H    -4.223437     2.662885    -4.330472
 C    -5.182492     3.345900    -1.106809
 H    -6.000186     4.048763    -1.290184
 H    -2.791739    -0.742437    -2.398664
 H    -1.676936    -1.835702    -1.589312
 C    -3.666659    -1.799911    -0.733328
 C    -4.903740    -1.143118    -0.666699
 H    -5.012894    -0.166974    -1.142551
 C    -3.537614    -3.075806    -0.141424
 C    -2.262646    -3.863453    -0.233794
 H    -1.396190    -3.328578     0.183508
 H    -2.001582    -4.093360    -1.278906
 H    -2.350758    -4.817793     0.303646
 C    -5.987905    -1.702726     0.001336
 H    -6.935762    -1.161677     0.046268
 C    -4.640896    -3.625226     0.523613
 H    -4.539157    -4.612163     0.983444
 C    -5.854992    -2.948886     0.609040
 H    -6.696707    -3.400436     1.139525
 H    -1.559411    -1.458941     1.061683
 H    -0.461693    -0.133494     1.431241
 C    -2.379899     0.021229     2.358241
 C    -3.530619    -0.718811     2.647370
 H    -3.781878    -1.577791     2.022624
 C    -2.051331     1.134934     3.160823
 C    -0.839534     1.971116     2.871375
 H    -0.823438     2.315237     1.824858
 H     0.096724     1.410046     3.029075
 H    -0.802632     2.855496     3.521472
 C    -4.371181    -0.362572     3.698134
 H    -5.271713    -0.949205     3.893805
 C    -2.903349     1.473709     4.216815
 H    -2.656022     2.340956     4.835260
 C    -4.058340     0.741606     4.486362
 H    -4.709890     1.035036     5.313013
 C     1.293669    -2.577382    -1.853388
 H     1.317737    -1.997426    -2.778260
 C     1.395200    -2.725939     0.545283
 H     1.509120    -2.265525     1.528294
 C     1.112265    -3.954164    -1.921912
 H     1.003588    -4.436572    -2.896347
 C     1.193393    -4.112101     0.493752
 C     1.079179    -4.909797     1.759582
 H     1.715091    -4.498005     2.556697
 H     0.041038    -4.899768     2.132903
 H     1.360766    -5.960697     1.602374
 C     1.069815    -4.720391    -0.757444
 H     0.927041    -5.802425    -0.820984
 H     3.031963    -0.424076    -2.575908
 H     3.330161     1.133899    -1.834585
 C     4.592797    -0.446355    -1.083057
 C     4.776386    -1.814900    -0.840993
 H     3.954031    -2.505169    -1.039458
 C     5.664892     0.442510    -0.846835
 C     5.546731     1.915759    -1.112930
 H     4.731438     2.373432    -0.532372
 H     5.348083     2.120072    -2.177514
 H     6.475972     2.434562    -0.842141
 C     5.985823    -2.312617    -0.362700
 H     6.100684    -3.384227    -0.183579
 C     6.873740    -0.077490    -0.369444
 H     7.703743     0.610530    -0.187030
 C     7.042553    -1.437592    -0.124194
 H     7.998711    -1.811659     0.249524
 H     1.488442    -0.020155     1.799407
 H     3.016574    -0.773206     1.336965
 C     3.100914     1.359366     1.479015
 C     2.549470     2.606922     1.167665
 H     1.580539     2.632202     0.665429
 C     4.336432     1.302748     2.160111
 C     4.944442     0.000439     2.594291
 H     5.104898    -0.684474     1.748430
 H     4.300793    -0.519054     3.323228
 H     5.919457     0.166765     3.071677
 C     3.213061     3.791975     1.475242
 H     2.761750     4.751660     1.212702
 C     4.991503     2.503688     2.455699
 H     5.953834     2.461644     2.973194
 C     4.448655     3.739891     2.114195
 H     4.987263     4.659167     2.356563
