 108
scf done:    -3739.395824
 C    -0.658016     0.412338    -3.487706
 H    -1.159186    -0.369042    -4.070099
 H    -1.218912     1.352510    -3.454605
 C     0.760042     0.450968    -3.454682
 H     1.329204    -0.302832    -4.011586
 H     1.269261     1.417857    -3.387336
 H    -0.029203     1.264728    -1.372192
Co     0.023399    -0.171461    -1.690736
 C    -1.458997     1.364259     0.889799
 C    -3.199438     0.636002    -1.267151
 C    -2.216051    -1.410980     0.732281
 C     1.438124    -1.261595     1.110274
 C     3.282058    -0.984631    -1.070763
 C     2.223201     1.436138     0.415208
 P     1.745557    -0.187382    -0.354728
 P    -1.691776     0.016462    -0.352882
 C     0.117115    -1.857463    -2.143533
 O     0.259507    -2.936721    -2.525428
 C    -1.340799     1.152180     2.266455
 H    -1.419406     0.148308     2.682008
 C    -1.343265     2.678708     0.413138
 H    -1.408166     2.862051    -0.663213
 C    -1.093690     2.222123     3.128029
 H    -0.983950     2.035915     4.199549
 C    -1.130011     3.765829     1.262237
 C    -1.074616     5.163785     0.717367
 H    -0.707473     5.177500    -0.318961
 H    -2.077207     5.623352     0.717416
 H    -0.420067     5.808819     1.321525
 C    -0.989843     3.517886     2.634632
 H    -0.800677     4.350208     3.318116
 H    -2.729601     1.387412    -1.926946
 C    -4.313638     1.348838    -0.499614
 H    -3.899127     2.120528     0.166091
 H    -4.849563     0.635643     0.144883
 C    -5.305942     1.972470    -1.478891
 H    -6.116122     2.475952    -0.926244
 H    -4.792173     2.758827    -2.061577
 C    -5.881679     0.932681    -2.434901
 H    -6.564172     1.409301    -3.157417
 H    -6.493608     0.215353    -1.857761
 C    -4.780110     0.170879    -3.164458
 H    -4.241681     0.858947    -3.840774
 H    -5.214068    -0.615470    -3.803427
 C    -3.780932    -0.439117    -2.186543
 H    -4.295653    -1.201724    -1.576076
 H    -2.969809    -0.952818    -2.724243
 H    -1.378063    -1.463600     1.453474
 C    -2.230971    -2.760880     0.011402
 H    -1.280491    -2.922570    -0.510650
 H    -3.016292    -2.765585    -0.762921
 C    -2.473118    -3.907109     0.989852
 H    -2.516777    -4.861629     0.440361
 H    -1.606166    -3.975575     1.668773
 C    -3.735771    -3.708875     1.818733
 H    -3.846906    -4.524806     2.551554
 H    -4.621128    -3.761094     1.158982
 C    -3.721265    -2.355774     2.518793
 H    -2.901203    -2.334039     3.260424
 H    -4.656459    -2.199106     3.081057
 C    -3.519189    -1.226093     1.513849
 H    -4.362785    -1.237453     0.803563
 H    -3.551806    -0.248786     2.017510
 C     1.328499    -2.646653     0.906483
 H     1.480838    -3.070938    -0.088376
 C     1.216507    -0.765756     2.398567
 H     1.289721     0.304896     2.591608
 C     1.024308    -3.494029     1.965638
 H     0.959331    -4.571072     1.793383
 C     0.876293    -1.602543     3.469679
 C     0.578912    -1.020570     4.821442
 H     1.094679    -0.060850     4.969418
 H    -0.502421    -0.832601     4.939061
 H     0.878047    -1.701430     5.631548
 C     0.790787    -2.977816     3.240232
 H     0.540399    -3.651021     4.064683
 H     2.842926    -1.836800    -1.623160
 C     4.325123    -1.556712    -0.107728
 H     3.851788    -2.198431     0.649270
 H     4.815710    -0.738184     0.441853
 C     5.382938    -2.345121    -0.876311
 H     6.136152    -2.744215    -0.177401
 H     4.904470    -3.221414    -1.350412
 C     6.051113    -1.494337    -1.950769
 H     6.779151    -2.094048    -2.521020
 H     6.628144    -0.687158    -1.463383
 C     5.020978    -0.872979    -2.886998
 H     4.526183    -1.670428    -3.470294
 H     5.513659    -0.213174    -3.619701
 C     3.959612    -0.094716    -2.115440
 H     4.441220     0.758316    -1.606593
 H     3.212174     0.324781    -2.802122
 H     1.340331     1.639064     1.051756
 C     2.286486     2.597061    -0.581070
 H     1.378227     2.595045    -1.201985
 H     3.138583     2.458580    -1.267359
 C     2.435061     3.926128     0.152489
 H     2.498739     4.752490    -0.574363
 H     1.523642     4.100680     0.749116
 C     3.643805     3.937146     1.080889
 H     3.697504     4.889948     1.632702
 H     4.568316     3.874866     0.478208
 C     3.603013     2.760330     2.048561
 H     2.740784     2.876841     2.730791
 H     4.504802     2.748484     2.682442
 C     3.471101     1.436854     1.300390
 H     4.361365     1.301753     0.663227
 H     3.463979     0.592833     2.006111
