 110
scf done:    -4562.055244
 C    -0.038560    -2.940416    -1.911586
 H    -0.412227    -3.878627    -1.489789
 H    -0.641149    -2.548379    -2.736400
 C     1.327530    -2.623151    -1.820340
 H     2.019799    -3.309324    -1.323408
 H     1.792731    -1.975283    -2.568870
 H     0.059990    -0.515340    -1.587728
Co     0.247322    -1.511294    -0.498308
 C    -2.742403    -1.008115    -1.827554
 O    -2.789630    -1.050436     0.765624
 O    -1.613749     0.959697    -0.238733
 C     1.323694     1.201423     1.279801
 O     3.116838    -0.605728     0.785922
 O     2.309194     0.680656    -1.270649
 P     1.698983    -0.103815     0.052121
 P    -1.642530    -0.691640    -0.400712
 C     0.294892    -2.614666     0.864868
 O     0.293097    -3.364615     1.734882
 C    -2.771326    -0.150958    -2.944242
 O    -1.928565     0.892274    -2.913224
 C    -2.025438     1.903011    -3.876528
 H    -1.283794     2.661746    -3.599122
 H    -1.795108     1.527147    -4.888411
 H    -3.026978     2.365682    -3.873801
 C    -3.468206    -2.215172    -1.893885
 O    -3.271596    -3.088298    -0.891887
 C    -3.952561    -4.309650    -0.889485
 H    -3.628706    -4.843003     0.013205
 H    -3.701938    -4.920581    -1.774220
 H    -5.046616    -4.169536    -0.847372
 C    -4.318764    -2.478979    -2.974961
 H    -4.900712    -3.398492    -3.015255
 C    -3.629472    -0.404777    -4.022229
 H    -3.680564     0.282055    -4.865699
 C    -4.402047    -1.559231    -4.014624
 H    -5.070406    -1.761728    -4.854991
 C    -2.609500    -0.996029     2.113205
 C    -2.504562     0.231060     2.772957
 H    -2.471601     1.150013     2.186123
 C    -2.641215    -2.187709     2.839235
 H    -2.705475    -3.131783     2.297072
 C    -2.480502     0.286566     4.169972
 C    -2.455373     1.612527     4.873523
 H    -2.000902     2.389317     4.243576
 H    -3.478809     1.940195     5.121634
 H    -1.893579     1.559784     5.818220
 C    -2.600123    -2.137201     4.229308
 H    -2.627499    -3.066484     4.803742
 C    -2.530458    -0.912561     4.892369
 H    -2.514669    -0.884820     5.985402
 C    -2.615332     1.864738    -0.408445
 C    -3.971103     1.547059    -0.333361
 H    -4.274807     0.522083    -0.118964
 C    -2.210932     3.180913    -0.653688
 H    -1.140822     3.378813    -0.709525
 C    -4.940999     2.539315    -0.530500
 C    -6.395337     2.171243    -0.466442
 H    -6.644102     1.416097    -1.229128
 H    -6.651551     1.735349     0.512205
 H    -7.041860     3.044967    -0.628889
 C    -3.171856     4.166181    -0.836816
 H    -2.860031     5.195688    -1.031754
 C    -4.531410     3.850767    -0.782875
 H    -5.281249     4.631573    -0.933612
 C     1.112119     2.563921     1.001478
 O     1.182520     2.956404    -0.284392
 C     1.449260     4.302292    -0.577876
 H     1.678023     4.343909    -1.650138
 H     0.580784     4.951166    -0.367823
 H     2.323707     4.667347    -0.014078
 C     1.136355     0.753091     2.606328
 O     1.246431    -0.569611     2.798469
 C     1.044313    -1.116687     4.075097
 H     1.116588    -2.204130     3.954375
 H     0.042393    -0.873131     4.461232
 H     1.815537    -0.772630     4.785460
 C     0.853645     1.652824     3.638812
 H     0.727447     1.302586     4.661775
 C     0.830827     3.467498     2.034559
 H     0.686105     4.524822     1.817393
 C     0.714996     3.002845     3.338474
 H     0.494572     3.710286     4.141681
 C     3.728302    -1.769074     0.408153
 C     4.452239    -1.824187    -0.781089
 H     4.509987    -0.930846    -1.406529
 C     3.638393    -2.883115     1.241040
 H     3.067025    -2.807157     2.166107
 C     5.083150    -3.008616    -1.173682
 C     5.817826    -3.073734    -2.481161
 H     5.109336    -3.159742    -3.321766
 H     6.414413    -2.165277    -2.652440
 H     6.491125    -3.941493    -2.524340
 C     4.269858    -4.062335     0.857391
 H     4.202557    -4.944250     1.499088
 C     4.981930    -4.128083    -0.339942
 H     5.469610    -5.061800    -0.631982
 C     3.295348     1.611095    -1.377272
 C     4.137909     1.988105    -0.331124
 H     4.034204     1.513256     0.644549
 C     3.438424     2.194405    -2.640615
 H     2.766779     1.874257    -3.438987
 C     5.114342     2.972620    -0.529192
 C     6.009862     3.363982     0.611194
 H     5.424166     3.620299     1.507686
 H     6.676623     2.532488     0.891266
 H     6.639042     4.227502     0.353737
 C     4.412310     3.165322    -2.839031
 H     4.523620     3.623924    -3.824931
 C     5.243889     3.561126    -1.790306
 H     6.004582     4.328600    -1.953939
