  96
scf done:    -3882.047379
 C    -0.227094     2.893502    -2.598939
 H    -0.638920     2.759532    -3.605567
 H    -0.817557     3.564841    -1.966953
 C     1.172200     2.813231    -2.398241
 H     1.830059     2.608943    -3.250510
 H     1.637056     3.411569    -1.607931
 H     0.076347     1.978372    -0.462226
Co     0.253604     1.173117    -1.677949
 C    -1.696270     0.550484     0.951002
 C    -3.051299     1.336472    -1.527091
 C    -2.002666    -1.387636    -1.272969
 C     1.842447    -1.465636    -0.205085
 C     3.550259     0.481530    -1.367743
 C     2.193417     1.056000     1.141924
 P     1.870213     0.344645    -0.544050
 P    -1.573527     0.398122    -0.872058
 C     0.312448     0.193346    -3.125876
 O     0.309810    -0.459261    -4.077035
 C    -1.127423    -0.418157     1.785508
 H    -0.706548    -1.331553     1.367451
 C    -2.190826     1.723423     1.533480
 H    -2.586770     2.520148     0.899598
 C    -1.091909    -0.221819     3.164270
 H    -0.656148    -0.993318     3.804084
 C    -2.158528     1.938034     2.914702
 C    -2.650174     3.229290     3.501984
 H    -1.809820     3.920939     3.682493
 H    -3.356292     3.738074     2.830066
 H    -3.150884     3.069211     4.468176
 C    -1.608284     0.941056     3.728442
 H    -1.576636     1.084495     4.811930
 H    -2.850437     1.373706    -2.608138
 H    -2.923582     2.369793    -1.173023
 C    -4.425653     0.808220    -1.261678
 C    -5.124586     1.106259    -0.083244
 H    -4.674330     1.764063     0.661036
 C    -5.043977    -0.034754    -2.196460
 H    -4.533350    -0.255135    -3.138285
 C    -6.381297     0.558181     0.162786
 H    -6.903148     0.802258     1.091245
 C    -6.297790    -0.589910    -1.950697
 H    -6.752783    -1.250168    -2.692735
 C    -6.970175    -0.300417    -0.764874
 H    -7.952651    -0.735368    -0.567923
 H    -1.089936    -1.798182    -1.724419
 H    -2.750478    -1.320407    -2.079023
 C    -2.477471    -2.317318    -0.194438
 C    -3.707831    -2.153369     0.452581
 H    -4.369183    -1.336634     0.164398
 C    -1.652884    -3.376333     0.205436
 H    -0.686698    -3.514104    -0.284014
 C    -4.091292    -3.013801     1.478025
 H    -5.054588    -2.862416     1.971313
 C    -2.032781    -4.235497     1.234186
 H    -1.365492    -5.049227     1.530461
 C    -3.254905    -4.055011     1.879465
 H    -3.556747    -4.723949     2.689094
 C     1.695870    -2.325217    -1.304178
 H     1.562169    -1.915219    -2.307808
 C     1.997650    -2.026536     1.064597
 H     2.117627    -1.382128     1.937708
 C     1.746676    -3.704139    -1.129747
 H     1.653341    -4.364161    -1.995628
 C     2.010587    -3.413748     1.262221
 C     2.112441    -3.980041     2.647946
 H     2.773196    -3.372586     3.283712
 H     1.120523    -4.001848     3.130516
 H     2.496824    -5.009844     2.637718
 C     1.902678    -4.246476     0.145497
 H     1.931007    -5.331591     0.276703
 H     3.783255     1.557223    -1.366538
 H     3.369587     0.204720    -2.417029
 C     4.641735    -0.351721    -0.770492
 C     4.886216    -1.643770    -1.257755
 H     4.313309    -2.008100    -2.112741
 C     5.413818     0.093633     0.311124
 H     5.275116     1.104779     0.698169
 C     5.838927    -2.469725    -0.669408
 H     6.001984    -3.474200    -1.067344
 C     6.371709    -0.728769     0.902106
 H     6.960008    -0.353741     1.743189
 C     6.582384    -2.018684     0.420385
 H     7.330238    -2.665768     0.884697
 H     3.135983     0.638055     1.527256
 H     1.371726     0.684132     1.772575
 C     2.195437     2.555899     1.163457
 C     1.024712     3.247584     1.500816
 H     0.137741     2.679996     1.786252
 C     3.326419     3.306541     0.820285
 H     4.259950     2.801899     0.565405
 C     0.978346     4.638694     1.472645
 H     0.049820     5.153087     1.733450
 C     3.285276     4.699845     0.793926
 H     4.181461     5.261550     0.519776
 C     2.107807     5.372669     1.112687
 H     2.072524     6.464255     1.086485
