  80
scf done:    -3272.786285
 C     0.938815    -3.379327    -0.087542
 H     1.540921    -3.795213    -0.903416
 H     1.429450    -3.451847     0.889496
 C    -0.475936    -3.451715    -0.166096
 H    -0.935773    -3.912535    -1.047583
 H    -1.061137    -3.580566     0.749545
 H     0.128792    -1.461763     1.026725
Co     0.163981    -1.563477    -0.441089
 C     1.228551     1.043996     1.340854
 C     3.285701    -0.975051     0.699717
 C     2.432766     0.882496    -1.277679
 C    -1.631332     1.314798    -1.030844
 C    -3.191957    -0.979123    -1.159584
 C    -2.263600    -0.150658     1.474538
 P    -1.676370    -0.391662    -0.263640
 P     1.738611    -0.187590     0.060813
 C     0.401335    -1.690599    -2.168882
 O     0.622629    -1.812287    -3.293603
 C     0.788745     2.298747     0.891471
 H     0.846274     2.548960    -0.168315
 C     1.101685     0.737555     2.717214
 C     1.511278    -0.577450     3.315792
 H     2.604106    -0.648653     3.427686
 H     1.184462    -1.420627     2.689033
 H     1.067898    -0.700663     4.313426
 C     0.245136     3.243377     1.757416
 H    -0.093001     4.204060     1.362594
 C     0.553484     1.703063     3.571364
 H     0.455181     1.461247     4.633372
 C     0.126860     2.945299     3.110573
 H    -0.299302     3.671660     3.806662
 H     3.915014    -0.221040     1.202210
 H     2.978584    -1.704340     1.460488
 C     4.060659    -1.703362    -0.393140
 H     4.503587    -0.975697    -1.092615
 H     3.354512    -2.308481    -0.985224
 C     5.156318    -2.595437     0.169138
 H     5.879914    -2.016665     0.765667
 H     4.735084    -3.374838     0.823949
 H     5.714310    -3.100992    -0.633629
 H     2.724638     0.177390    -2.074595
 H     1.589291     1.447449    -1.702721
 C     3.584075     1.816232    -0.930001
 H     4.460193     1.227590    -0.611369
 H     3.309590     2.437569    -0.061777
 C     3.970093     2.711419    -2.098257
 H     4.272466     2.116780    -2.975267
 H     3.123202     3.345121    -2.407563
 H     4.808304     3.376408    -1.839835
 C    -0.885605     1.348564    -2.218637
 H    -0.418668     0.428780    -2.568867
 C    -2.263899     2.510847    -0.611940
 C    -3.168322     2.641623     0.580880
 H    -2.624836     2.510845     1.527242
 H    -3.985039     1.906504     0.560454
 H    -3.625193     3.640389     0.596265
 C    -0.705340     2.508953    -2.964917
 H    -0.115156     2.479269    -3.883790
 C    -2.044926     3.677590    -1.359920
 H    -2.516262     4.603792    -1.019516
 C    -1.271111     3.696300    -2.515213
 H    -1.129754     4.629020    -3.066380
 H    -3.946837    -0.174225    -1.113300
 H    -2.882003    -1.052505    -2.216157
 C    -3.791608    -2.299047    -0.698405
 H    -4.173047    -2.191463     0.330653
 H    -3.000075    -3.061478    -0.653839
 C    -4.917800    -2.770328    -1.606001
 H    -5.731553    -2.028823    -1.655873
 H    -4.557003    -2.932238    -2.634334
 H    -5.350847    -3.718172    -1.251505
 H    -1.632344     0.651666     1.889989
 H    -3.298005     0.219882     1.459765
 C    -2.177063    -1.362975     2.393155
 H    -1.154372    -1.767490     2.355211
 H    -2.831083    -2.170260     2.026636
 C    -2.544903    -1.008606     3.825573
 H    -1.875868    -0.226457     4.219832
 H    -3.575878    -0.625724     3.898742
 H    -2.467460    -1.883768     4.488697
