  96
scf done:    -4254.663107
 C    -0.735151    -4.083326     0.398411
 H    -1.478401    -4.372895     1.147743
 H    -1.072913    -4.183199    -0.637472
 C     0.636832    -4.153172     0.697761
 H     0.962920    -4.514291     1.678064
 H     1.372737    -4.291131    -0.099157
 H     0.320082    -2.177672    -0.700881
Co     0.010082    -2.228432     0.749635
 O    -1.976212    -0.945742    -1.391841
 O    -3.084285    -1.479032     0.835129
 O    -1.500606     0.522313     0.652220
 O     2.316708    -0.301127     1.806148
 O     3.054752    -1.907893    -0.035407
 O     1.589417     0.091369    -0.617018
 P     1.712685    -1.119735     0.503547
 P    -1.616284    -1.066096     0.206530
 C    -0.198641    -2.124788     2.496982
 O    -0.315422    -2.009731     3.629910
 C    -2.204768     0.204444    -2.108114
 C    -3.492714     0.488370    -2.558222
 H    -4.309384    -0.193996    -2.319208
 C    -1.136977     1.053597    -2.396880
 H    -0.141776     0.793667    -2.034595
 C    -3.710968     1.653435    -3.291626
 H    -4.720155     1.883215    -3.641630
 C    -1.371045     2.218838    -3.122767
 H    -0.537036     2.891686    -3.335816
 C    -2.657652     2.525210    -3.568957
 H    -2.838234     3.440774    -4.136678
 C    -4.292120    -1.464623     0.177941
 C    -4.579786    -2.460273    -0.754881
 H    -3.831012    -3.225505    -0.966161
 C    -5.231682    -0.476528     0.460820
 H    -4.998095     0.297974     1.191519
 C    -5.802484    -2.448933    -1.418522
 H    -6.014336    -3.226298    -2.157791
 C    -6.452495    -0.483014    -0.209729
 H    -7.180504     0.302292     0.011404
 C    -6.761525    -1.460098    -1.162678
 C    -8.088668    -1.470528    -1.864431
 H    -8.806153    -2.127432    -1.344576
 H    -7.997128    -1.841705    -2.895791
 H    -8.533112    -0.465517    -1.901046
 C    -2.469003     1.335648     1.186689
 C    -2.854925     1.163017     2.515439
 H    -2.404539     0.361382     3.103585
 C    -3.022839     2.355595     0.417686
 H    -2.704745     2.484107    -0.617331
 C    -3.824675     1.998679     3.060929
 H    -4.133025     1.849010     4.099258
 C    -3.989491     3.184289     0.981916
 H    -4.429945     3.975724     0.369352
 C    -4.414040     3.021256     2.305779
 C    -5.441595     3.933552     2.910686
 H    -4.962100     4.766242     3.452217
 H    -6.078758     3.401553     3.632379
 H    -6.091352     4.374983     2.141403
 C     3.630505    -0.139431     2.165202
 C     4.237954     1.107677     2.025749
 H     3.668269     1.939155     1.609938
 C     4.332021    -1.217449     2.706693
 H     3.830622    -2.181150     2.809051
 C     5.567837     1.263643     2.411147
 H     6.045882     2.239232     2.295479
 C     5.661487    -1.049409     3.086267
 H     6.212926    -1.895636     3.502741
 C     6.286306     0.189031     2.934758
 H     7.329766     0.317155     3.230934
 C     3.893269    -1.508682    -1.048293
 C     5.176485    -1.057497    -0.750584
 H     5.501057    -1.002758     0.288933
 C     3.462345    -1.579745    -2.372560
 H     2.451883    -1.931704    -2.587585
 C     6.019030    -0.662949    -1.787203
 H     7.021757    -0.300779    -1.544323
 C     4.315266    -1.175947    -3.394928
 H     3.964788    -1.221966    -4.429712
 C     5.607836    -0.707748    -3.124255
 C     6.530888    -0.299990    -4.235864
 H     7.283775     0.422852    -3.889926
 H     5.979609     0.154184    -5.072297
 H     7.074286    -1.171128    -4.638877
 C     2.012168     1.393606    -0.497498
 C     3.113355     1.831714    -1.227799
 H     3.658599     1.128102    -1.857729
 C     1.298227     2.278478     0.309744
 H     0.429169     1.911271     0.856321
 C     3.511826     3.162680    -1.123747
 H     4.384324     3.499698    -1.690127
 C     1.714648     3.602421     0.403836
 H     1.156854     4.289003     1.046681
 C     2.828999     4.070281    -0.306010
 C     3.252670     5.507768    -0.214350
 H     4.298463     5.640691    -0.526168
 H     3.150080     5.893692     0.810809
 H     2.631560     6.146387    -0.864600
