  56
scf done:    -3331.121551
 C     0.640400     2.766276    -1.036141
 H    -0.127464     3.543455    -0.982109
 H     1.626654     3.077820    -0.678710
 C     0.512871     1.706106    -1.934309
 H    -0.362443     1.628562    -2.584964
 H     1.397245     1.171667    -2.291094
 H    -0.089352    -0.335012    -0.542904
Co     0.049008     1.064114    -0.036078
 O     2.673952    -0.453658    -0.888390
 O     2.941786     0.971748     1.221752
 O     1.772253    -1.271555     1.293493
 O    -2.478710    -0.641290     0.550186
 O    -3.146934     1.693453     0.135607
 O    -2.401862     0.305272    -1.850860
 P    -1.950902     0.652387    -0.326454
 P     1.826649     0.105013     0.411444
 C    -0.114934     1.829385     1.516133
 O    -0.219641     2.346316     2.539605
 C     3.986404    -0.842326    -0.834272
 C     4.332082    -2.098451    -0.335205
 H     3.541979    -2.755413     0.030048
 C     4.965162     0.031010    -1.307782
 H     4.659304     1.006651    -1.689853
 C     5.673895    -2.471825    -0.300749
 H     5.948830    -3.453923     0.091672
 C     6.303390    -0.353557    -1.269242
 H     7.072020     0.330342    -1.637251
 C     6.662595    -1.603171    -0.763093
 H     7.712870    -1.901422    -0.733070
 C     3.959978     0.476106     2.072198
 H     3.697396    -0.513048     2.474482
 H     4.912744     0.398675     1.526930
 H     4.072837     1.188982     2.901625
 C     0.666587    -1.552737     2.133168
 H     0.705308    -0.951435     3.056431
 H    -0.284998    -1.347612     1.618448
 H     0.725786    -2.617125     2.397358
 C    -3.680735    -1.276671     0.372001
 C    -3.691632    -2.500579    -0.297141
 H    -2.749651    -2.898814    -0.678788
 C    -4.859428    -0.730819     0.880400
 H    -4.815202     0.227562     1.398181
 C    -4.897184    -3.176312    -0.471454
 H    -4.907889    -4.134078    -0.997304
 C    -6.059403    -1.415400     0.698535
 H    -6.985503    -0.990158     1.093041
 C    -6.084548    -2.634960     0.021992
 H    -7.028734    -3.166285    -0.116335
 C    -2.978818     3.075080    -0.095767
 H    -2.120697     3.474724     0.467988
 H    -2.834870     3.299324    -1.166799
 H    -3.893895     3.576538     0.247334
 C    -3.717263     0.339766    -2.373649
 H    -4.132702    -0.677464    -2.423926
 H    -4.381665     0.962655    -1.757240
 H    -3.660623     0.758935    -3.388797
