  84
scf done:    -5562.794979
 C    -0.532147     0.373267    -3.381274
 H    -1.055516    -0.418178    -3.928165
 H    -1.059965     1.331388    -3.380092
 C     0.874002     0.334716    -3.285217
 H     1.432272    -0.485498    -3.748172
 H     1.441617     1.269211    -3.238978
 H     0.022558     1.292420    -1.246093
Co     0.023856    -0.164215    -1.515513
 C    -1.620845     1.206789     1.170191
 C    -3.117622     0.901589    -1.238289
 C    -2.563481    -1.356647     0.391413
 C     1.618844    -1.235398     1.257405
 C     3.304889    -0.952661    -1.024129
 C     2.464117     1.368591     0.359702
 P     1.789067    -0.221308    -0.266540
 P    -1.730876     0.124453    -0.318680
 C    -0.196590    -1.876604    -1.821900
 O    -0.395573    -2.985770    -2.050734
 C    -2.346286     0.931742     2.334176
 H    -2.984822     0.048942     2.390425
 C    -0.808243     2.347075     1.131214
 H    -0.234252     2.555032     0.225407
 C    -2.247162     1.783896     3.432667
 H    -2.812232     1.561104     4.341137
 C    -0.704599     3.214870     2.222560
 C     0.173342     4.430533     2.168411
 H     0.509119     4.639874     1.144388
 H    -0.352275     5.319170     2.549508
 H     1.076244     4.296255     2.785051
 C    -1.434259     2.911730     3.379881
 H    -1.365623     3.573870     4.247723
 C    -3.609805     0.234749    -2.368921
 H    -3.174229    -0.723244    -2.663159
 C    -3.680560     2.130201    -0.884508
 H    -3.316515     2.665466    -0.005178
 C    -4.647044     0.770199    -3.121538
 H    -5.033558     0.246591    -3.997308
 C    -4.711798     2.687088    -1.640215
 H    -5.148945     3.648414    -1.365536
 C    -5.191302     2.002214    -2.753163
Cl    -6.475787     2.683655    -3.692946
 C    -3.955420    -1.486521     0.474327
 H    -4.602543    -0.706431     0.067578
 C    -1.761929    -2.374218     0.922752
 H    -0.674984    -2.300577     0.863540
 C    -4.535376    -2.600008     1.076696
 H    -5.620111    -2.701908     1.137504
 C    -2.327054    -3.485679     1.538625
 H    -1.693772    -4.270102     1.955384
 C    -3.715025    -3.592262     1.611731
Cl    -4.428876    -4.974689     2.371115
 C     2.022072    -2.574964     1.268148
 H     2.577475    -2.990225     0.424839
 C     0.910467    -0.728767     2.356737
 H     0.575178     0.310977     2.353205
 C     1.712905    -3.385185     2.360034
 H     2.032077    -4.430285     2.363727
 C     0.599399    -1.530053     3.458680
 C    -0.197567    -0.982998     4.605196
 H    -0.104909     0.109308     4.676627
 H    -1.268356    -1.208744     4.468546
 H     0.113653    -1.427915     5.561694
 C     1.009080    -2.869790     3.444235
 H     0.772851    -3.513791     4.295816
 C     3.172572    -1.948572    -1.998995
 H     2.180092    -2.265498    -2.320729
 C     4.594550    -0.563559    -0.641642
 H     4.731921     0.217895     0.107948
 C     4.289110    -2.557042    -2.565083
 H     4.177924    -3.336956    -3.319921
 C     5.720663    -1.152892    -1.207904
 H     6.723344    -0.842114    -0.910103
 C     5.561545    -2.151735    -2.167135
Cl     6.957192    -2.890386    -2.874399
 C     3.054188     1.515628     1.619941
 H     3.100217     0.667056     2.305402
 C     2.440349     2.472044    -0.501598
 H     1.973668     2.369967    -1.483565
 C     3.583138     2.739371     2.024199
 H     4.028187     2.856436     3.013674
 C     2.979655     3.695079    -0.119180
 H     2.955483     4.553886    -0.791898
 C     3.538042     3.824475     1.152039
Cl     4.148262     5.360200     1.665711
