  98
scf done:    -3881.116530
 C     1.830673     1.352022     2.283761
 H     2.410943     0.802631     3.032371
 H     2.415475     2.057390     1.686128
 C     0.464002     1.614136     2.510400
 H    -0.008108     1.262922     3.433881
 H     0.011436     2.519704     2.095355
 H     0.751562     1.249681     0.129019
Co     0.688165     0.161092     1.117420
 O     3.192347     0.625771    -0.836726
 O     3.161283    -1.668040    -0.019346
 O     1.429444    -1.037687    -1.654060
 O    -1.633781    -1.176195    -0.561575
 O    -2.541587     0.308740     1.308255
 O    -1.617502     1.353154    -0.710250
 P    -1.235312     0.169135     0.324983
 P     2.071494    -0.482351    -0.276462
 C     0.584618    -1.268846     2.132711
 O     0.497832    -2.222535     2.766695
 C     2.893693     1.914803    -1.170515
 C     1.796719     2.223131    -1.977332
 H     1.153734     1.419907    -2.339428
 C     3.752447     2.918188    -0.692307
 C     4.933191     2.554257     0.154492
 H     5.526539     3.443193     0.407637
 H     4.618275     2.073939     1.095100
 H     5.585814     1.834507    -0.363416
 C     1.532058     3.551009    -2.303798
 H     0.667958     3.788739    -2.928042
 C     3.463467     4.240298    -1.039311
 H     4.121453     5.033625    -0.673986
 C     2.362429     4.564002    -1.831893
 H     2.158705     5.607065    -2.083796
 C     4.285260    -1.520169     0.841337
 H     5.104468    -2.075363     0.356099
 H     4.587278    -0.461826     0.883626
 C     4.025690    -2.070748     2.227876
 H     4.951344    -1.938695     2.816115
 H     3.259284    -1.453121     2.724751
 C     3.603258    -3.532397     2.240187
 H     4.389766    -4.138888     1.756068
 H     2.704224    -3.644676     1.613074
 C     3.324436    -4.059827     3.637452
 H     4.210292    -3.970000     4.287238
 H     2.502883    -3.499720     4.110060
 H     3.032584    -5.120692     3.617291
 C     2.166628    -1.716947    -2.670367
 H     1.807446    -1.306417    -3.628352
 H     3.238485    -1.483630    -2.578448
 C     1.916194    -3.207997    -2.589746
 H     2.484917    -3.695096    -3.402000
 H     2.341965    -3.576558    -1.641622
 C     0.442491    -3.582291    -2.677729
 H     0.031651    -3.224419    -3.638775
 H    -0.108287    -3.037724    -1.893616
 C     0.197691    -5.075335    -2.538081
 H     0.711748    -5.647547    -3.327810
 H     0.567086    -5.448613    -1.569175
 H    -0.874933    -5.314011    -2.597659
 C    -2.771587    -1.243027    -1.330307
 C    -3.941470    -1.741135    -0.757484
 H    -3.921042    -2.050144     0.288057
 C    -2.726868    -0.850353    -2.677568
 C    -1.470650    -0.317632    -3.296965
 H    -1.450988     0.782960    -3.252282
 H    -0.583488    -0.672750    -2.758310
 H    -1.400361    -0.615724    -4.353132
 C    -5.102824    -1.844498    -1.516531
 H    -6.016685    -2.234679    -1.062514
 C    -3.908892    -0.970325    -3.418637
 H    -3.895224    -0.676508    -4.472110
 C    -5.086866    -1.453224    -2.854293
 H    -5.990743    -1.532572    -3.462597
 C    -2.625277    -0.408934     2.527793
 H    -2.652545    -1.494973     2.321658
 H    -1.726611    -0.210190     3.134215
 C    -3.871086     0.028463     3.263779
 H    -3.872474    -0.462933     4.252320
 H    -3.796577     1.113173     3.455886
 C    -5.167745    -0.276741     2.527021
 H    -5.245670    -1.367843     2.372181
 H    -5.117593     0.166809     1.519253
 C    -6.401495     0.226742     3.257119
 H    -6.489240    -0.224100     4.258958
 H    -6.365874     1.319859     3.391641
 H    -7.323397    -0.009272     2.704553
 C    -2.760633     2.201303    -0.674993
 H    -2.900970     2.534557    -1.715720
 H    -3.651572     1.629254    -0.377945
 C    -2.530574     3.382736     0.245105
 H    -3.429751     4.023512     0.213080
 H    -2.456293     3.007308     1.280265
 C    -1.289170     4.190155    -0.107027
 H    -1.397552     4.595226    -1.129047
 H    -0.423340     3.510041    -0.151524
 C    -1.002960     5.320347     0.866489
 H    -1.834213     6.042909     0.909624
 H    -0.849144     4.935371     1.887815
 H    -0.093204     5.870517     0.582074
