  80
scf done:    -4391.877276
 C    -0.723896    -3.741451    -0.572532
 H    -1.188342    -4.275664     0.262929
 H    -1.354544    -3.679078    -1.463842
 C     0.676491    -3.700215    -0.693505
 H     1.312133    -4.195013     0.048245
 H     1.136971    -3.605768    -1.681284
 H    -0.173240    -1.570793    -1.464256
Co    -0.027409    -1.914623    -0.032597
 O    -1.936429     0.299603    -1.307380
 C    -3.328811    -1.752968    -0.233978
 C    -2.200452     0.306515     1.401894
 O     1.935258     0.240121     1.201878
 C     3.269484    -1.764424    -0.031952
 C     2.100691     0.374811    -1.526158
 P     1.741253    -0.771685    -0.157711
 P    -1.800568    -0.783006    -0.005844
 C     0.098259    -2.282334     1.683325
 O     0.177111    -2.528689     2.801070
 C    -2.650734     1.464104    -1.253029
 C    -3.993388     1.500752    -1.632563
 H    -4.485337     0.584127    -1.959795
 C    -2.012751     2.633231    -0.831810
 H    -0.962146     2.584724    -0.542338
 C    -4.699912     2.700223    -1.577817
 H    -5.750687     2.754593    -1.867999
 C    -2.713256     3.832851    -0.772362
 H    -2.236600     4.756250    -0.439130
 C    -4.053319     3.850306    -1.142791
 F    -4.730491     4.995911    -1.083114
 C    -3.935188    -2.386831     0.857728
 H    -3.562311    -2.208946     1.870035
 C    -3.802673    -2.019859    -1.523632
 H    -3.314627    -1.552255    -2.382044
 C    -5.015099    -3.244521     0.672294
 H    -5.504314    -3.739758     1.512930
 C    -4.882825    -2.875289    -1.722744
 H    -5.268010    -3.090250    -2.721179
 C    -5.477601    -3.474634    -0.618711
 F    -6.511111    -4.291557    -0.801415
 C    -3.499967     0.760495     1.673968
 H    -4.344822     0.381547     1.095657
 C    -1.131093     0.812619     2.151917
 H    -0.112274     0.475795     1.942883
 C    -3.728519     1.702606     2.669301
 H    -4.731475     2.070842     2.891655
 C    -1.346985     1.758533     3.150002
 H    -0.523223     2.163311     3.740584
 C    -2.644504     2.192428     3.391941
 F    -2.859544     3.098021     4.339749
 C     2.726725     1.352553     1.237189
 C     2.180437     2.587914     0.879865
 H     1.137326     2.631950     0.563175
 C     4.059025     1.273288     1.647703
 H     4.478270     0.306470     1.927984
 C     2.960969     3.738269     0.915102
 H     2.555823     4.711695     0.633661
 C     4.845913     2.422246     1.685186
 H     5.889923     2.385744     2.001529
 C     4.289275     3.639896     1.313617
 F     5.043327     4.737827     1.343861
 C     3.915412    -2.257224    -1.171779
 H     3.582768    -1.947631    -2.165671
 C     3.697774    -2.196620     1.230371
 H     3.181324    -1.841308     2.125566
 C     4.986084    -3.140312    -1.058177
 H     5.503722    -3.528613    -1.937100
 C     4.768372    -3.075501     1.357844
 H     5.117273    -3.416228     2.334354
 C     5.401453    -3.534810     0.207682
 F     6.426060    -4.374882     0.322856
 C     3.387916     0.892411    -1.743359
 H     4.230870     0.536672    -1.148132
 C     1.036732     0.851903    -2.300780
 H     0.031235     0.457803    -2.136178
 C     3.607878     1.868440    -2.707419
 H     4.600955     2.284138    -2.885729
 C     1.243814     1.832761    -3.266733
 H     0.422624     2.216700    -3.874568
 C     2.527892     2.329108    -3.454355
 F     2.733456     3.266706    -4.372768
