  92
scf done:    -4872.812083
 C    -1.969802     0.047243    -3.055653
 H    -2.278084    -0.820354    -3.648339
 H    -2.799536     0.679370    -2.725767
 C    -0.699112     0.616402    -3.270533
 H    -0.035214     0.181901    -4.024022
 H    -0.547938     1.688219    -3.110862
 H    -1.130278     0.882651    -0.941247
Co    -0.723470    -0.408005    -1.523009
 O    -3.505788     0.052785     0.091480
 C    -3.132239    -2.502352    -0.313088
 C    -1.658797    -1.115546     1.651644
 O     1.746933    -1.019186     0.380992
 C     2.528387     0.655783    -1.588742
 C     0.947619     1.577927     0.601676
 P     1.069476     0.201349    -0.589058
 P    -2.172469    -0.964081    -0.095147
 C    -0.133095    -1.973703    -2.059176
 O     0.309439    -2.990916    -2.361222
 C    -3.547792     1.387989    -0.142266
 C    -2.631212     2.283157     0.417857
 H    -1.816886     1.921938     1.047558
 C    -4.589970     1.870431    -0.939631
 H    -5.293209     1.153045    -1.366377
 C    -2.759340     3.648773     0.176332
 H    -2.042650     4.348577     0.606646
 C    -4.722442     3.233601    -1.177385
 H    -5.533943     3.615152    -1.798997
 C    -3.800335     4.118974    -0.619242
Cl    -3.951711     5.821980    -0.917395
 C    -3.831133    -3.088210     0.750366
 H    -3.781015    -2.640758     1.745821
 C    -3.210635    -3.093796    -1.575530
 H    -2.678317    -2.639849    -2.412960
 C    -4.583016    -4.238892     0.548391
 H    -5.122002    -4.683327     1.390023
 C    -3.964256    -4.248294    -1.771290
 H    -4.011620    -4.697287    -2.767096
 C    -4.660398    -4.842860    -0.714604
 C    -5.449614    -6.103041    -0.912857
 H    -6.425192    -6.049209    -0.406501
 H    -5.625906    -6.306481    -1.978318
 H    -4.914454    -6.970691    -0.492665
 C    -2.241713    -0.377293     2.683019
 H    -3.074803     0.293604     2.465162
 C    -0.609292    -1.992778     1.954655
 H    -0.130965    -2.566254     1.157901
 C    -1.760431    -0.490287     3.987620
 H    -2.219207     0.105386     4.781805
 C    -0.143603    -2.108620     3.257688
 H     0.684684    -2.789808     3.471956
 C    -0.702792    -1.349915     4.297767
 C    -0.178654    -1.473410     5.698299
 H     0.909407    -1.307044     5.733331
 H    -0.656029    -0.750338     6.374237
 H    -0.361549    -2.482447     6.101719
 C     3.079729    -1.147964     0.632402
 C     3.669892    -0.527470     1.734846
 H     3.056872     0.079023     2.402186
 C     3.857821    -1.928115    -0.226442
 H     3.375350    -2.410192    -1.078467
 C     5.036151    -0.668281     1.965224
 H     5.508799    -0.183207     2.820813
 C     5.222474    -2.067281    -0.004246
 H     5.838924    -2.664985    -0.677384
 C     5.807756    -1.428907     1.089252
Cl     7.513349    -1.586926     1.362928
 C     2.682861     0.069470    -2.847602
 H     1.873843    -0.537518    -3.257488
 C     3.581008     1.427653    -1.075101
 H     3.489499     1.888852    -0.089708
 C     3.861158     0.238293    -3.570295
 H     3.963463    -0.234390    -4.550803
 C     4.752893     1.594063    -1.801276
 H     5.566215     2.189562    -1.377361
 C     4.917340     0.999115    -3.060012
 C     6.190598     1.185316    -3.829990
 H     7.066104     0.924051    -3.215563
 H     6.210601     0.564218    -4.736062
 H     6.314962     2.235853    -4.138846
 C     0.712675     1.336479     1.957517
 H     0.706056     0.312055     2.334434
 C     0.920938     2.899263     0.137070
 H     1.087441     3.109288    -0.922847
 C     0.460245     2.395321     2.828218
 H     0.268121     2.181180     3.883089
 C     0.680696     3.950032     1.014747
 H     0.673254     4.975283     0.633539
 C     0.436102     3.718330     2.375830
 C     0.120914     4.854731     3.303035
 H     0.752581     5.731451     3.096554
 H    -0.927788     5.176029     3.185194
 H     0.260944     4.569180     4.355001
