  92
scf done:    -4152.240356
 C    -0.719604    -2.768979    -2.136393
 H    -0.527916    -2.633168    -3.205706
 H    -0.036533    -3.463288    -1.641231
 C    -2.017748    -2.587815    -1.633592
 H    -2.834126    -2.322826    -2.313229
 H    -2.338301    -3.143052    -0.747135
 H    -0.486554    -1.808016     0.095193
Co    -0.819482    -1.011149    -1.111245
 O     1.434172    -0.490727     1.021664
 C     2.172140    -2.244247    -0.959268
 C     2.285234     0.646444    -1.302360
 O    -1.781168     1.055087     1.251565
 C    -3.859632     0.448874    -0.386740
 C    -2.860128    -1.377133     1.528539
 P    -2.256170    -0.213527     0.246280
 P     1.229770    -0.709738    -0.641360
 C    -1.022008     0.013364    -2.520544
 O    -1.116867     0.657343    -3.468372
 C     2.507055    -0.001059     1.709383
 C     3.179894    -0.845226     2.597672
 H     2.862080    -1.883399     2.693698
 C     2.891341     1.339617     1.607332
 H     2.350667     2.004990     0.937229
 C     4.243382    -0.366599     3.357893
 H     4.778952    -1.012655     4.055624
 C     3.960579     1.819669     2.357801
 H     4.279665     2.860686     2.281483
 C     4.629429     0.960727     3.220672
 F     5.653986     1.421330     3.939044
 C     2.314501    -3.163233     0.084331
 H     1.919995    -2.908615     1.069025
 C     2.586947    -2.591331    -2.262337
 C     2.388579    -1.684663    -3.442343
 H     3.140947    -0.880923    -3.475319
 H     1.405193    -1.193181    -3.411785
 H     2.459405    -2.251199    -4.381156
 C     2.922236    -4.398022    -0.122949
 H     3.028910    -5.100968     0.706468
 C     3.195533    -3.837550    -2.448015
 H     3.522734    -4.115154    -3.453917
 C     3.378182    -4.731168    -1.395588
 H     3.856323    -5.696645    -1.576660
 C     1.568620     1.778087    -1.711851
 H     0.480572     1.762530    -1.651585
 C     3.702768     0.679289    -1.317920
 C     4.601192    -0.433736    -0.858374
 H     4.699168    -1.222493    -1.619813
 H     4.239433    -0.922463     0.053581
 H     5.605577    -0.038624    -0.653255
 C     2.205203     2.932670    -2.154305
 H     1.617285     3.804481    -2.446948
 C     4.319539     1.848743    -1.781865
 H     5.412066     1.886571    -1.795961
 C     3.594760     2.961829    -2.197087
 H     4.119906     3.856471    -2.540400
 C    -1.206326     2.191626     0.785379
 C    -0.199810     2.768504     1.564850
 H     0.105346     2.264380     2.482883
 C    -1.607744     2.818762    -0.400230
 H    -2.405449     2.389803    -1.006927
 C     0.410872     3.951935     1.162713
 H     1.205741     4.409555     1.754615
 C    -0.993582     4.001282    -0.807419
 H    -1.290329     4.497989    -1.732943
 C     0.012882     4.550760    -0.026486
 F     0.620813     5.667894    -0.434153
 C    -4.154501     0.235568    -1.737632
 H    -3.438635    -0.312012    -2.349544
 C    -4.782321     1.152608     0.425549
 C    -4.562365     1.446590     1.881048
 H    -3.838857     2.265037     2.013381
 H    -4.160415     0.579673     2.422070
 H    -5.507443     1.746788     2.354162
 C    -5.333518     0.702033    -2.312064
 H    -5.536281     0.519682    -3.369586
 C    -5.960095     1.613814    -0.174941
 H    -6.679286     2.158816     0.442560
 C    -6.240845     1.399382    -1.521957
 H    -7.172522     1.777026    -1.950269
 C    -4.020391    -2.095945     1.204970
 H    -4.549969    -1.871999     0.276288
 C    -2.173474    -1.663847     2.728347
 C    -0.926250    -0.950832     3.155816
 H    -1.159935     0.062726     3.514625
 H    -0.213837    -0.833969     2.328740
 H    -0.433076    -1.498103     3.971464
 C    -4.519053    -3.084960     2.046110
 H    -5.424124    -3.630210     1.769512
 C    -2.702561    -2.657583     3.562592
 H    -2.181369    -2.879694     4.497878
 C    -3.855873    -3.364379     3.237194
 H    -4.233505    -4.134406     3.914243
