 102
scf done:    -4333.096101
 C    -1.443662    -0.434923    -3.362732
 H    -1.882227    -1.361562    -3.748187
 H    -2.124446     0.421411    -3.378431
 C    -0.054380    -0.226777    -3.481510
 H     0.567437    -0.994150    -3.952824
 H     0.334588     0.789775    -3.594177
 H    -0.667535     0.823001    -1.436612
Co    -0.541731    -0.639313    -1.560609
 O    -3.258819     0.916298    -0.703407
 C    -3.518939    -1.643129    -0.245865
 C    -1.949692    -0.015623     1.448158
 O     1.454751    -1.092384     0.875858
 C     2.866585    -0.442856    -1.339783
 C     1.396860     1.521604     0.107689
 P     1.252297    -0.175781    -0.538312
 P    -2.226759    -0.359553    -0.323845
 C    -0.355515    -2.384682    -1.517231
 O    -0.195408    -3.520806    -1.434448
 C    -2.922930     2.090828    -1.301387
 C    -1.888756     2.908876    -0.843250
 H    -1.273164     2.601511     0.003090
 C    -3.700271     2.506478    -2.386737
 H    -4.504775     1.852783    -2.729363
 C    -1.647621     4.131512    -1.470237
 H    -0.838316     4.762091    -1.093989
 C    -3.445883     3.726997    -2.999511
 H    -4.064152     4.037274    -3.846957
 C    -2.412680     4.564396    -2.555398
 C    -2.138665     5.876028    -3.233192
 H    -1.353593     6.440332    -2.710201
 H    -3.040460     6.507658    -3.270572
 H    -1.806122     5.727502    -4.273622
 C    -3.658018    -2.550767    -1.305348
 H    -2.970595    -2.491017    -2.150957
 C    -4.411294    -1.730031     0.825443
 H    -4.319559    -1.036056     1.664340
 C    -4.653065    -3.514239    -1.293524
 H    -4.766350    -4.227279    -2.112084
 C    -5.416990    -2.693449     0.852230
 H    -6.092890    -2.735036     1.706634
 C    -5.542505    -3.594720    -0.212614
 O    -6.475226    -4.562797    -0.280424
 C    -7.393974    -4.693470     0.767827
 H    -8.007038    -3.783521     0.892824
 H    -8.052607    -5.531325     0.506244
 H    -6.894334    -4.918655     1.726568
 C    -2.436785     1.129775     2.091599
 H    -3.063635     1.832509     1.539365
 C    -1.178710    -0.919156     2.182920
 H    -0.780050    -1.813148     1.699680
 C    -2.119913     1.385320     3.418985
 H    -2.480884     2.281864     3.926924
 C    -0.860700    -0.679888     3.517172
 H    -0.238390    -1.398408     4.050501
 C    -1.315868     0.490728     4.138874
 O    -1.027890     0.834240     5.410019
 C    -0.196645    -0.006575     6.161419
 H     0.797207    -0.124846     5.694171
 H    -0.074866     0.467253     7.143709
 H    -0.641622    -1.007320     6.301478
 C     2.662328    -1.388536     1.438127
 C     3.232353    -0.563949     2.406976
 H     2.714154     0.346335     2.710135
 C     3.324272    -2.555574     1.047860
 H     2.859405    -3.192038     0.292497
 C     4.465900    -0.902191     2.963225
 H     4.906656    -0.245874     3.719080
 C     4.554161    -2.876479     1.607378
 H     5.065501    -3.788050     1.284971
 C     5.153965    -2.053717     2.571280
 C     6.495295    -2.401600     3.149408
 H     6.771869    -1.718796     3.965152
 H     7.285740    -2.343539     2.383309
 H     6.508282    -3.427933     3.548751
 C     4.043334     0.186367    -0.896456
 H     3.991664     0.950212    -0.117938
 C     2.973899    -1.425695    -2.325097
 H     2.070345    -1.927346    -2.676180
 C     5.275728    -0.159712    -1.421768
 H     6.194717     0.319454    -1.079677
 C     4.207874    -1.788697    -2.860671
 H     4.250027    -2.561873    -3.627857
 C     5.370398    -1.154774    -2.406896
 O     6.608245    -1.430479    -2.854147
 C     6.770464    -2.418241    -3.834067
 H     6.238348    -2.162021    -4.766935
 H     7.845696    -2.479002    -4.044207
 H     6.418456    -3.404542    -3.484073
 C     1.795084     2.565526    -0.742405
 H     2.153875     2.341449    -1.750418
 C     0.925957     1.842454     1.380454
 H     0.587650     1.048395     2.048196
 C     1.727673     3.884251    -0.325616
 H     2.032962     4.702982    -0.979975
 C     0.842101     3.167928     1.808834
 H     0.448692     3.374876     2.804144
 C     1.235414     4.199193     0.950083
 O     1.158113     5.511043     1.248738
 C     0.613860     5.886853     2.483512
 H     1.212856     5.506152     3.329439
 H     0.620168     6.983786     2.509767
 H    -0.425404     5.531309     2.596608
