  56
scf done:    -4250.078214
 C    -2.484850    -2.317167     2.364156
 H    -1.686763    -3.052707     2.492095
 H    -2.773547    -1.803041     3.286255
 C    -3.410055    -2.438905     1.312222
 H    -3.345678    -3.280269     0.616394
 H    -4.413675    -2.013590     1.409991
 H    -1.219407    -2.148977     0.314432
Co    -2.011928    -1.028771     0.872899
 O    -1.593915     0.291531    -2.080407
 O    -2.464676    -1.991732    -2.184313
 O    -4.007397    -0.231482    -1.419713
 O     0.915096    -0.896637    -0.130810
 O     0.623981     0.843993     1.583459
 O     0.675248    -1.574804     2.348204
 P    -0.011038    -0.629473     1.214188
 P    -2.503812    -0.755294    -1.128283
 C    -2.885229     0.331312     1.555519
 O    -3.487238     1.200583     2.001480
 C    -1.009161     1.405032    -1.561461
 C     0.334291     1.644936    -1.849295
 H     0.872889     0.939317    -2.483226
 C    -1.720456     2.296834    -0.755380
 H    -2.782904     2.130098    -0.570559
 C     0.977672     2.748588    -1.303326
 H     2.031713     2.936381    -1.513238
 C    -1.074136     3.390994    -0.187527
 H    -1.616628     4.077719     0.464136
 C     0.277234     3.599120    -0.449137
Cl     1.108728     4.915467     0.320124
 C    -1.250610    -2.648562    -2.473315
 H    -0.580785    -1.995727    -3.054819
 H    -0.731965    -2.951512    -1.547586
 H    -1.494683    -3.543090    -3.061226
 C    -4.504856    -0.051205    -2.734885
 H    -3.825302     0.578752    -3.329897
 H    -4.629922    -1.020482    -3.238982
 H    -5.479105     0.446151    -2.643248
 C     2.273987    -0.896590    -0.255330
 C     2.876719    -2.067566    -0.719580
 H     2.247922    -2.936310    -0.922838
 C     3.052499     0.233746     0.007534
 H     2.567097     1.139594     0.367202
 C     4.253600    -2.120686    -0.910350
 H     4.732201    -3.032716    -1.270519
 C     4.431002     0.180550    -0.178366
 H     5.050085     1.055309     0.028002
 C     5.027670    -0.993968    -0.634702
Cl     6.744127    -1.053742    -0.865124
 C     0.096028     1.630824     2.627677
 H    -0.992758     1.755790     2.531515
 H     0.319454     1.194418     3.615902
 H     0.564941     2.621337     2.553514
 C     1.982960    -1.441138     2.871833
 H     2.697026    -2.047296     2.293963
 H     2.320796    -0.393936     2.860964
 H     1.960621    -1.804726     3.909024
