  96
scf done:    -4453.059171
 C     0.523846    -3.045044    -2.573004
 H     1.230432    -3.012744    -3.408169
 H     0.845699    -3.667464    -1.732456
 C    -0.847451    -2.826931    -2.792148
 H    -1.214725    -2.630715    -3.804162
 H    -1.586277    -3.276287    -2.123699
 H    -0.331537    -1.813259    -0.648341
Co    -0.000024    -1.184260    -1.950117
 O     2.377983    -1.763923     0.156160
 O     3.114894    -0.626226    -1.907607
 O     1.749941     0.708615    -0.173117
 O    -1.798264     1.423436    -1.829866
 O    -3.074999    -0.559272    -1.112561
 O    -1.244038     0.304036     0.440845
 P    -1.501593    -0.038384    -1.147792
 P     1.766785    -0.723364    -0.988564
 C     0.255454    -0.314806    -3.466901
 O     0.408622     0.264785    -4.439855
 C     1.618310    -2.316771     1.150918
 C     1.713227    -3.693630     1.353695
 H     2.356438    -4.280976     0.696200
 C     0.800146    -1.538123     1.971820
 H     0.715875    -0.465666     1.802314
 C     0.993955    -4.296749     2.381395
 H     1.051517    -5.371531     2.562276
 C     0.069917    -2.140354     2.992507
 H    -0.582949    -1.550355     3.638397
 C     0.179533    -3.510407     3.187956
 F    -0.528198    -4.090099     4.159856
 C     4.362425    -0.232165    -1.470349
 C     4.753460     1.085153    -1.680263
 H     4.060649     1.762636    -2.183761
 C     5.205209    -1.145238    -0.840983
 H     4.872003    -2.173231    -0.699404
 C     5.989890     1.539553    -1.211696
 C     6.372266     2.981288    -1.369485
 H     6.156688     3.346369    -2.384810
 H     5.796705     3.605516    -0.666468
 H     7.440177     3.141237    -1.165641
 C     6.445135    -0.701547    -0.390164
 H     7.120315    -1.402723     0.106546
 C     6.829888     0.627467    -0.563136
 H     7.801543     0.964091    -0.192544
 C     2.648516     1.395693     0.602110
 C     3.532271     0.776546     1.481780
 H     3.554488    -0.310120     1.552585
 C     2.607097     2.787313     0.493894
 H     1.896616     3.239872    -0.200199
 C     4.426172     1.544701     2.236389
 C     5.417536     0.859684     3.129882
 H     4.929018     0.106610     3.766655
 H     6.174638     0.333655     2.525777
 H     5.939241     1.574861     3.780793
 C     3.479844     3.552119     1.259966
 H     3.453757     4.641773     1.181066
 C     4.390002     2.937600     2.119599
 H     5.080429     3.545903     2.709049
 C    -2.733051     2.357427    -1.443707
 C    -2.288521     3.518403    -0.813625
 H    -1.219321     3.654263    -0.647428
 C    -4.090429     2.156040    -1.686269
 H    -4.413395     1.249850    -2.196817
 C    -3.208963     4.454417    -0.356282
 H    -2.891211     5.353417     0.173697
 C    -5.015370     3.092326    -1.231484
 H    -6.086894     2.953072    -1.385033
 C    -4.563456     4.218262    -0.556602
 F    -5.454761     5.089057    -0.074610
 C    -3.464221    -1.831427    -0.784599
 C    -2.963863    -2.490739     0.337210
 H    -2.228884    -1.995196     0.975184
 C    -4.411708    -2.437066    -1.609694
 H    -4.779481    -1.894459    -2.481997
 C    -3.393463    -3.790011     0.637556
 C    -2.819195    -4.521694     1.814112
 H    -2.722144    -3.871645     2.694737
 H    -3.437999    -5.386516     2.091080
 H    -1.808060    -4.893253     1.582108
 C    -4.850263    -3.719967    -1.303359
 H    -5.592521    -4.204110    -1.942423
 C    -4.342943    -4.393833    -0.193000
 H    -4.690024    -5.404648     0.035229
 C    -1.821936     1.220508     1.282425
 C    -3.199662     1.258405     1.497910
 H    -3.844597     0.556813     0.967796
 C    -0.965522     2.093768     1.949191
 H     0.107830     2.040886     1.758850
 C    -3.749817     2.221557     2.346933
 C    -5.236865     2.332839     2.516333
 H    -5.619291     3.213847     1.975322
 H    -5.755644     1.448567     2.121314
 H    -5.514231     2.453104     3.574427
 C    -1.511343     3.034020     2.820206
 H    -0.849178     3.724944     3.347665
 C    -2.888218     3.106741     3.009903
 H    -3.306424     3.860645     3.681958
