  62
scf done:    -3409.706472
 C    -1.046832    -2.641321    -1.641204
 H    -1.686726    -3.409497    -1.195995
 H    -1.572526    -1.923347    -2.276364
 C     0.317747    -2.898677    -1.854256
 H     0.735185    -3.873492    -1.581708
 H     0.856458    -2.379671    -2.652165
 H     0.114952    -0.527761    -1.191553
Co     0.076546    -1.670527    -0.251358
 O    -2.210562     0.397842    -0.728477
 O    -2.596849    -1.140384     1.321833
 O    -1.068664     0.889755     1.392086
 O     2.093114     0.533539     0.674193
 O     3.262284    -1.627054     0.530263
 O     2.595936    -0.492202    -1.636411
 P     1.975416    -0.872432    -0.174384
 P    -1.413415    -0.419309     0.455609
 C     0.077004    -2.883068     1.019250
 O     0.076474    -3.661528     1.861884
 C    -3.370020     1.113688    -0.557363
 C    -3.324615     2.411965    -0.054338
 H    -2.358308     2.828103     0.231979
 C    -4.577667     0.513830    -0.946138
 C    -4.583544    -0.883261    -1.486144
 H    -3.982197    -0.952927    -2.405974
 H    -4.137143    -1.587427    -0.766698
 H    -5.605629    -1.214376    -1.714274
 C    -4.506227     3.136750     0.084203
 H    -4.474894     4.154138     0.481054
 C    -5.747125     1.265526    -0.798378
 H    -6.699967     0.817751    -1.093991
 C    -5.720401     2.562025    -0.285922
 H    -6.650508     3.125113    -0.180768
 C    -3.541763    -0.493869     2.156572
 H    -3.268581     0.554399     2.345847
 H    -4.535389    -0.516220     1.685444
 H    -3.581538    -1.040311     3.110797
 C    -0.320577     0.704514     2.577189
 H    -0.985117     0.469898     3.425435
 H     0.421321    -0.099755     2.457755
 H     0.216588     1.639340     2.784167
 C     2.996488     1.539231     0.441208
 C     4.252266     1.496270     1.040880
 H     4.501550     0.637194     1.666009
 C     2.597201     2.607151    -0.376299
 C     1.240112     2.598191    -1.010176
 H     1.193507     1.847814    -1.816156
 H     0.463244     2.317445    -0.283290
 H     0.995439     3.578846    -1.440229
 C     5.154008     2.534524     0.817884
 H     6.142291     2.506238     1.282681
 C     3.521324     3.636744    -0.579154
 H     3.235781     4.481975    -1.211467
 C     4.788010     3.605324     0.004180
 H     5.488706     4.424274    -0.173778
 C     3.480899    -2.995216     0.263708
 H     2.649547    -3.616884     0.633015
 H     3.612582    -3.188887    -0.814623
 H     4.399985    -3.287042     0.789781
 C     3.957287    -0.250577    -1.940584
 H     4.133351     0.829895    -2.050804
 H     4.624050    -0.638493    -1.157021
 H     4.181903    -0.754208    -2.892501
