  80
scf done:    -3995.106533
 C    -1.789184    -0.863748    -2.826650
 H    -2.165742    -1.866031    -3.052992
 H    -2.565652    -0.092160    -2.839787
 C    -0.452927    -0.530011    -3.115663
 H     0.206657    -1.270908    -3.577339
 H    -0.191354     0.507162    -3.351394
 H    -0.850853     0.628535    -1.029371
Co    -0.696536    -0.831621    -1.118518
 O    -3.293337     0.873111    -0.287915
 C    -3.755099    -1.687885    -0.120808
 C    -2.299271    -0.353656     1.901697
 O     1.698573    -0.570517     1.008915
 C     2.693557    -0.908342    -1.495760
 C     1.556628     1.578285    -0.655586
 P     1.251503    -0.222895    -0.596530
 P    -2.386120    -0.501892     0.081409
 C    -0.545651    -2.562100    -0.871110
 O    -0.467241    -3.686069    -0.639713
 C    -2.726516     2.115029    -0.314702
 C    -2.246325     2.636391    -1.519398
 H    -2.309754     2.032563    -2.425249
 C    -2.657748     2.879383     0.852381
 H    -3.036013     2.462046     1.786332
 C    -1.694510     3.912812    -1.559049
 H    -1.298934     4.333185    -2.484730
 C    -2.113515     4.160542     0.815537
 H    -2.051285     4.777385     1.713885
 C    -1.631951     4.656605    -0.388488
 F    -1.079988     5.872839    -0.417553
 C    -3.638268    -2.948647     0.477454
 C    -4.866465    -1.402801    -0.919430
 C    -5.731669    -3.624819    -0.518275
 C    -5.850948    -2.371012    -1.114387
 C    -4.623460    -3.911315     0.279798
 H    -2.773276    -3.179254     1.105271
 H    -4.525764    -4.891351     0.752652
 H    -6.504609    -4.381368    -0.673375
 H    -6.719367    -2.140978    -1.736587
 H    -4.960162    -0.416068    -1.375836
 C    -3.463398    -0.109967     2.645478
 C    -1.070562    -0.470217     2.552203
 C    -2.156533    -0.084170     4.676223
 C    -1.001670    -0.335839     3.940704
 C    -3.389990     0.027056     4.027094
 H    -4.425169    -0.026322     2.132249
 H    -4.297586     0.217262     4.605279
 H    -2.101776     0.022046     5.762595
 H    -0.036390    -0.428798     4.444414
 H    -0.165229    -0.666204     1.973014
 C     2.982358    -0.692417     1.459973
 C     3.672041     0.409359     1.969408
 H     3.186618     1.385564     1.988015
 C     3.595242    -1.947387     1.429438
 H     3.039105    -2.794956     1.025278
 C     4.976869     0.259220     2.434574
 H     5.537846     1.105158     2.835944
 C     4.897641    -2.102276     1.891144
 H     5.398217    -3.071810     1.869955
 C     5.575383    -0.993385     2.385146
 F     6.826429    -1.136374     2.824461
 C     2.556506    -2.131141    -2.161267
 C     3.956508    -0.299065    -1.449980
 C     4.907971    -2.129034    -2.705594
 C     5.055103    -0.906254    -2.051151
 C     3.657076    -2.740597    -2.760535
 H     1.578448    -2.612958    -2.204492
 H     3.534195    -3.696655    -3.274606
 H     5.771807    -2.605684    -3.175361
 H     6.033975    -0.423852    -2.001313
 H     4.085971     0.652139    -0.930552
 C     1.986412     2.207554    -1.828943
 C     1.212010     2.360365     0.453502
 C     1.783512     4.367803    -0.763669
 C     1.336152     3.745536     0.401456
 C     2.098642     3.596665    -1.880383
 H     2.243464     1.609529    -2.706735
 H     2.439408     4.077742    -2.800455
 H     1.863785     5.456013    -0.804928
 H     1.064637     4.347266     1.271566
 H     0.834867     1.877830     1.358709
