  82
scf done:    -3423.185209
 C    -0.187507    -4.037392    -1.097311
 H    -0.419044    -4.797454    -0.342799
 H    -0.971527    -3.913503    -1.851153
 C     1.162823    -3.799907    -1.455771
 H     1.955117    -4.381781    -0.971563
 H     1.404459    -3.493621    -2.478251
 H    -0.021855    -1.694158    -1.620820
Co     0.439093    -2.288100    -0.339927
 O    -1.236408     0.328818    -0.340797
 C    -2.888804    -1.880534    -0.621983
 C    -1.817084    -1.047034     1.928435
 O     1.615994     0.246689     0.994129
 C     3.641816    -1.040010    -0.245730
 C     1.735367     0.476411    -1.795793
 P     1.842652    -0.699882    -0.390112
 P    -1.339370    -1.284459     0.171303
 C     0.989933    -2.907450     1.204586
 O     1.388144    -3.304680     2.207700
 C    -2.267770     1.201806    -0.498680
 C    -2.697623     2.004494     0.559426
 H    -2.209959     1.913852     1.531600
 C    -2.861666     1.344881    -1.756163
 H    -2.497328     0.731698    -2.582785
 C    -3.739732     2.909244     0.364047
 H    -4.072448     3.526781     1.202996
 C    -3.901210     2.250305    -1.934832
 H    -4.363275     2.344299    -2.921790
 C    -4.366936     3.045486    -0.878461
 C    -5.481031     4.029498    -1.089743
 H    -5.857072     4.422945    -0.134917
 H    -6.326970     3.570592    -1.624110
 H    -5.145057     4.888594    -1.693604
 H    -2.764179    -1.654591    -1.695104
 H    -2.818826    -2.979516    -0.555527
 C    -4.246254    -1.407478    -0.112015
 H    -4.286794    -0.308519    -0.078378
 H    -4.387922    -1.748770     0.926605
 C    -5.387426    -1.924881    -0.974519
 H    -5.303326    -1.548841    -2.006767
 H    -5.389071    -3.025766    -1.022981
 H    -6.364654    -1.604599    -0.582373
 H    -0.962638    -0.517859     2.383675
 H    -2.690371    -0.376688     1.985942
 C    -2.095707    -2.350741     2.668326
 H    -1.221740    -3.015057     2.588754
 H    -2.927073    -2.887892     2.180178
 C    -2.429148    -2.125129     4.135148
 H    -1.597685    -1.624164     4.655620
 H    -3.322826    -1.490986     4.250819
 H    -2.623360    -3.076097     4.653857
 C     1.977067     1.551641     1.139913
 C     1.093091     2.562952     0.754114
 H     0.129501     2.280108     0.329991
 C     3.206559     1.890122     1.706490
 H     3.880382     1.094528     2.029964
 C     1.458800     3.896189     0.902955
 H     0.760787     4.676698     0.586409
 C     3.557825     3.230998     1.850451
 H     4.527491     3.484076     2.288545
 C     2.698636     4.258681     1.446550
 C     3.072008     5.702509     1.621542
 H     2.583690     6.135282     2.510778
 H     2.761288     6.306706     0.755909
 H     4.156828     5.825772     1.750212
 H     4.178945    -0.082222    -0.140129
 H     3.763890    -1.585062     0.705637
 C     4.208228    -1.855648    -1.401185
 H     4.043736    -1.319877    -2.352085
 H     3.641352    -2.795155    -1.485362
 C     5.690739    -2.151497    -1.236376
 H     6.281834    -1.223082    -1.182251
 H     5.881545    -2.718179    -0.311070
 H     6.078286    -2.746074    -2.077594
 H     1.619045    -0.181503    -2.673992
 H     0.751051     0.957198    -1.670759
 C     2.841398     1.497859    -2.035278
 H     3.777160     0.976206    -2.296715
 H     3.054006     2.062435    -1.115363
 C     2.474452     2.472179    -3.144334
 H     2.264445     1.946675    -4.090008
 H     1.572953     3.046569    -2.877512
 H     3.285572     3.191895    -3.332670
