  98
scf done:    -4032.430597
 C     0.345994     3.392449     1.095958
 H     0.708599     3.593550     2.109464
 H     1.023356     3.721764     0.304455
 C    -1.034434     3.313792     0.848717
 H    -1.746258     3.461523     1.667816
 H    -1.425801     3.583475    -0.136487
 H     0.064588     1.718870    -0.626265
Co    -0.192622     1.448603     0.808213
 O     1.775818    -0.068849    -1.238734
 C     2.939390     1.910814     0.083119
 C     2.581214    -0.686518     1.292000
 O    -1.842607    -1.020344    -0.657856
 C    -3.480296     0.392664     0.985659
 C    -2.599778     1.386492    -1.517688
 P    -1.942408     0.541410    -0.025895
 P     1.689523     0.589969     0.310601
 C    -0.321841     1.087199     2.515727
 O    -0.369952     0.900492     3.650645
 C     1.897193    -1.357626    -1.660948
 C     1.466720    -2.456050    -0.918629
 H     0.995446    -2.314338     0.051029
 C     2.467436    -1.530395    -2.937756
 C     2.912137    -0.343013    -3.735240
 H     3.280534    -0.650487    -4.723264
 H     2.088373     0.373129    -3.878976
 H     3.720194     0.205544    -3.224761
 C     1.633211    -3.744363    -1.423140
 H     1.293345    -4.591950    -0.824725
 C     2.603574    -2.831757    -3.424011
 H     3.043199    -2.974408    -4.415132
 C     2.202624    -3.939000    -2.676643
 H     2.330227    -4.946698    -3.077936
 C     3.148558     2.418739    -1.203281
 H     2.622755     1.964160    -2.043038
 C     3.579977     2.508209     1.187863
 C     3.368771     2.042661     2.599225
 H     3.931807     1.120394     2.812043
 H     2.310846     1.819115     2.798500
 H     3.695391     2.811527     3.313089
 C     4.014667     3.485926    -1.420475
 H     4.167186     3.866375    -2.433195
 C     4.450434     3.577382     0.944151
 H     4.956031     4.043397     1.794522
 C     4.677312     4.063359    -0.340346
 H     5.361102     4.901552    -0.493820
 C     1.853165    -1.302926     2.314642
 H     0.822092    -1.000272     2.487557
 C     3.902562    -1.113891     1.021738
 C     4.769090    -0.538762    -0.060645
 H     5.197037     0.429451     0.242940
 H     4.212789    -0.360115    -0.987813
 H     5.599209    -1.222533    -0.284472
 C     2.400117    -2.315298     3.094745
 H     1.803359    -2.781445     3.881475
 C     4.432953    -2.135309     1.819226
 H     5.451068    -2.477934     1.615914
 C     3.703961    -2.730376     2.845070
 H     4.154973    -3.528076     3.440360
 C    -1.701393    -2.153453     0.075119
 C    -1.580219    -2.163414     1.466816
 H    -1.619584    -1.230741     2.027399
 C    -1.692087    -3.358593    -0.655434
 C    -1.801773    -3.333369    -2.147456
 H    -2.641870    -2.704762    -2.478641
 H    -0.885546    -2.913280    -2.593252
 H    -1.937829    -4.346610    -2.548935
 C    -1.418431    -3.371856     2.144068
 H    -1.319553    -3.364415     3.232123
 C    -1.541666    -4.551047     0.052806
 H    -1.533129    -5.490249    -0.507450
 C    -1.395449    -4.570947     1.440569
 H    -1.274415    -5.520322     1.966421
 C    -3.507071     1.076801     2.205725
 H    -2.632068     1.652233     2.504216
 C    -4.621926    -0.336585     0.573368
 C    -4.717337    -1.096637    -0.717368
 H    -4.225864    -2.078329    -0.627585
 H    -4.238258    -0.566522    -1.550227
 H    -5.770939    -1.273241    -0.974115
 C    -4.621269     1.048711     3.038722
 H    -4.610225     1.593843     3.984966
 C    -5.729367    -0.354775     1.430419
 H    -6.614913    -0.917102     1.121951
 C    -5.739117     0.319833     2.647812
 H    -6.625504     0.279382     3.285604
 C    -3.643144     2.301221    -1.314097
 H    -4.075781     2.411335    -0.317651
 C    -2.033052     1.252548    -2.803930
 C    -0.898176     0.322968    -3.102779
 H    -0.489002     0.522786    -4.102785
 H    -1.220564    -0.725729    -3.063715
 H    -0.089159     0.425490    -2.366816
 C    -4.146793     3.070522    -2.358110
 H    -4.960185     3.775196    -2.171422
 C    -2.565497     2.030012    -3.840261
 H    -2.136542     1.924022    -4.840474
 C    -3.607534     2.928377    -3.632828
 H    -3.992975     3.519767    -4.466881
