  90
scf done:    -6013.981120
 C    -0.641728    -2.567277    -3.194958
 H    -1.202494    -3.365444    -2.700524
 H    -1.185625    -2.053862    -3.993705
 C     0.759366    -2.589787    -3.194454
 H     1.300191    -3.402547    -2.703428
 H     1.317840    -2.095105    -3.994409
 H     0.076043    -2.372428    -0.860632
Co     0.089871    -1.246280    -1.814949
 O     1.933676    -1.464835     0.836672
 O     3.157507    -1.683075    -1.298694
 O     2.270140     0.639853    -0.579251
 O    -2.936941    -0.353810    -1.921640
 O    -2.465647    -2.328123    -0.394729
 O    -2.030386    -0.068678     0.449501
 P    -1.755354    -0.948115    -0.928058
 P     1.809924    -0.949430    -0.730781
 C     0.163079     0.184905    -2.842801
 O     0.220988     1.131707    -3.484220
 C     0.899386    -1.293629     1.730334
 C     0.090780    -2.380650     2.046757
 H     0.269377    -3.340069     1.559105
 C     0.690862    -0.057381     2.339898
 H     1.326167     0.790968     2.081983
 C    -0.935539    -2.221877     2.974130
 H    -1.570429    -3.078490     3.215425
 C    -0.342909     0.085941     3.258015
 H    -0.513643     1.063845     3.715804
 C    -1.179107    -0.987860     3.586488
 C    -2.314959    -0.802150     4.550377
 H    -1.958994    -0.447576     5.530399
 H    -2.865904    -1.739451     4.712207
 H    -3.027754    -0.048217     4.177347
 C     4.416316    -1.754726    -0.746233
 C     4.658535    -2.494375     0.409435
 H     3.837323    -3.023980     0.890697
 C     5.456320    -1.090228    -1.393792
 H     5.242925    -0.532249    -2.306285
 C     5.938913    -2.512616     0.955617
 H     6.143036    -3.071573     1.870186
 C     6.734131    -1.103530    -0.848339
 H     7.549198    -0.556185    -1.323697
 C     6.966013    -1.803251     0.335808
Cl     8.545822    -1.784546     1.045609
 C     3.492292     1.150168    -0.220220
 C     4.099561     2.033796    -1.110714
 H     3.579156     2.286648    -2.036442
 C     4.117138     0.818600     0.983162
 H     3.638536     0.125665     1.674333
 C     5.358933     2.551754    -0.826624
 H     5.852397     3.232202    -1.522311
 C     5.382017     1.324605     1.262552
 H     5.900006     1.042645     2.180209
 C     6.003140     2.178413     0.352059
Cl     7.598017     2.766595     0.680810
 C    -3.679481     0.790058    -1.721327
 C    -3.166597     2.013260    -2.153818
 H    -2.198622     2.039809    -2.656997
 C    -4.919831     0.730941    -1.096140
 H    -5.320226    -0.231748    -0.777326
 C    -3.871194     3.182060    -1.898731
 H    -3.444213     4.140019    -2.207373
 C    -5.619710     1.913654    -0.857252
 H    -6.586369     1.863146    -0.348591
 C    -5.102894     3.157535    -1.230332
 C    -5.819982     4.437893    -0.917007
 H    -5.176680     5.110352    -0.326565
 H    -6.740558     4.257168    -0.344675
 H    -6.095422     4.980301    -1.835554
 C    -3.774184    -2.395197     0.010502
 C    -4.728803    -2.890950    -0.875528
 H    -4.417770    -3.191426    -1.877148
 C    -4.140848    -1.990559     1.293728
 H    -3.373794    -1.602898     1.962403
 C    -6.061457    -2.977077    -0.482639
 H    -6.820929    -3.357630    -1.167177
 C    -5.472475    -2.072542     1.688729
 H    -5.776517    -1.756162     2.687863
 C    -6.428091    -2.560737     0.797202
Cl    -8.087479    -2.652017     1.285930
 C    -1.883453     1.279941     0.622957
 C    -2.899913     1.938328     1.313557
 H    -3.757563     1.362577     1.663212
 C    -0.771928     1.985381     0.162991
 H     0.044584     1.464629    -0.335376
 C    -2.837061     3.313420     1.498507
 H    -3.640475     3.841680     2.014045
 C    -0.709936     3.364510     0.343485
 H     0.147390     3.928331    -0.027488
 C    -1.749536     4.025478     0.993992
Cl    -1.705828     5.751146     1.166436
