  92
scf done:    -4152.250666
 C    -0.105491    -3.210108    -1.674049
 H    -0.560540    -4.016959    -1.090169
 H    -0.683023    -2.923669    -2.557493
 C     1.287901    -3.010089    -1.647758
 H     1.919499    -3.683173    -1.058088
 H     1.796065    -2.561117    -2.506309
 H     0.249634    -0.816689    -1.808775
Co     0.346069    -1.594555    -0.541830
 O    -2.128936     0.290842    -1.264928
 C    -2.937622    -2.151952    -0.427554
 C    -2.060876    -0.185960     1.436232
 O     2.196431     0.464136     1.179654
 C     3.221727     0.014990    -1.297599
 C     0.970630     1.699138    -0.813128
 P     1.639024     0.052170    -0.386455
 P    -1.629951    -0.903672    -0.184682
 C     0.595432    -2.412281     0.983130
 O     0.770479    -2.936394     1.991756
 C    -3.059925     1.248160    -0.977985
 C    -2.683579     2.383579    -0.255535
 H    -1.656816     2.471878     0.100029
 C    -4.373146     1.113210    -1.430569
 H    -4.659173     0.219934    -1.986843
 C    -3.614982     3.379188     0.016714
 H    -3.341783     4.269205     0.586455
 C    -5.310123     2.110018    -1.162643
 H    -6.342639     2.027331    -1.506730
 C    -4.919852     3.229707    -0.439738
 F    -5.816475     4.183139    -0.177461
 C    -3.507468    -2.336250    -1.690392
 H    -3.236871    -1.659688    -2.504625
 C    -3.261964    -3.052691     0.594309
 H    -2.812135    -2.939783     1.584623
 C    -4.403926    -3.377882    -1.916254
 H    -4.841516    -3.503984    -2.910620
 C    -4.154660    -4.092853     0.359687
 H    -4.397633    -4.783843     1.171975
 C    -4.747800    -4.272231    -0.897121
 C    -5.731522    -5.380662    -1.131427
 H    -5.404098    -6.316252    -0.653730
 H    -6.717997    -5.128667    -0.707643
 H    -5.872740    -5.575074    -2.203963
 C    -3.390097    -0.028639     1.858158
 H    -4.206556    -0.407734     1.239580
 C    -1.035893     0.314750     2.244151
 H     0.007384     0.207728     1.939089
 C    -3.678239     0.620321     3.050835
 H    -4.720762     0.741923     3.357869
 C    -1.333410     0.964442     3.440087
 H    -0.516562     1.350746     4.055652
 C    -2.655128     1.131357     3.863075
 C    -2.979708     1.819049     5.155710
 H    -2.102496     2.333907     5.571390
 H    -3.783518     2.559232     5.023170
 H    -3.329710     1.093942     5.908743
 C     3.441753     0.164054     1.646318
 C     4.511578     1.026025     1.390250
 H     4.339876     1.926415     0.798752
 C     3.645107    -0.995492     2.397099
 H     2.801403    -1.657360     2.596660
 C     5.783141     0.724517     1.866563
 H     6.634308     1.378987     1.670819
 C     4.916099    -1.299857     2.879473
 H     5.099401    -2.201006     3.467452
 C     5.970901    -0.439444     2.602784
 F     7.190895    -0.733983     3.056401
 C     4.002672    -1.144473    -1.200608
 H     3.616092    -2.005123    -0.651093
 C     3.727892     1.109538    -2.003544
 H     3.139058     2.025809    -2.086148
 C     5.265625    -1.195624    -1.774980
 H     5.867056    -2.102961    -1.671121
 C     4.988133     1.043657    -2.594493
 H     5.367995     1.908240    -3.145959
 C     5.781144    -0.102915    -2.485633
 C     7.138280    -0.176671    -3.120088
 H     7.468188     0.805548    -3.486067
 H     7.890937    -0.548418    -2.407983
 H     7.135084    -0.869721    -3.977265
 C     1.093147     2.790542     0.052317
 H     1.591755     2.656158     1.013271
 C     0.324455     1.886482    -2.042010
 H     0.198340     1.041495    -2.722044
 C     0.574445     4.035504    -0.302761
 H     0.670679     4.873645     0.393177
 C    -0.177180     3.133070    -2.393410
 H    -0.684342     3.254111    -3.354323
 C    -0.072601     4.229465    -1.526710
 C    -0.690999     5.547537    -1.883253
 H    -0.528249     5.797438    -2.942213
 H    -1.781899     5.513338    -1.722308
 H    -0.288462     6.365280    -1.268954
