  92
scf done:    -4721.489387
 C    -0.793286     1.320596    -2.860260
 H    -0.083725     1.065104    -3.654451
 H    -1.805781     0.939836    -3.024993
 C    -0.609603     2.501486    -2.113158
 H     0.244919     3.149815    -2.332060
 H    -1.484398     3.025249    -1.716929
 H    -1.523492     0.917578    -0.581490
Co    -0.116556     0.871585    -1.004934
 O    -2.148431    -1.501781    -1.699582
 O     0.141231    -2.334908    -1.726269
 O    -0.836307    -1.814408     0.462818
 O     0.968564     0.433950     1.989642
 O     0.730145     2.811874     1.516286
 O    -1.330290     1.346819     1.841632
 P     0.048252     1.410562     1.003911
 P    -0.672821    -1.124795    -1.000165
 C     1.597118     0.861559    -1.428470
 O     2.699970     0.902627    -1.737041
 C    -3.312351    -0.845785    -1.443233
 C    -3.650754    -0.386189    -0.165921
 H    -2.963059    -0.520746     0.669247
 C    -4.197702    -0.659036    -2.506845
 H    -3.915627    -1.024247    -3.496107
 C    -4.866866     0.259388     0.037898
 H    -5.133810     0.627050     1.030061
 C    -5.416769    -0.022214    -2.301899
 H    -6.113914     0.124634    -3.128268
 C    -5.745717     0.439689    -1.027625
Cl    -7.260317     1.242899    -0.768387
 C     0.277850    -2.464985    -3.138434
 H     0.269629    -3.549762    -3.331404
 H    -0.604704    -2.035711    -3.639775
 C     1.561380    -1.849555    -3.658983
 H     1.629266    -2.088029    -4.735301
 H     1.494793    -0.751404    -3.595955
 C     2.806926    -2.330570    -2.929298
 H     2.867083    -3.431800    -2.999968
 H     2.686276    -2.102041    -1.859634
 C     4.092839    -1.702489    -3.439419
 H     4.280899    -1.960564    -4.494249
 H     4.048855    -0.605617    -3.362432
 H     4.961452    -2.033185    -2.850044
 C    -1.282895    -3.163180     0.634633
 H    -2.189788    -3.118027     1.260571
 H    -1.561931    -3.589850    -0.339736
 C    -0.202479    -3.987865     1.297783
 H    -0.540436    -5.038659     1.326772
 H     0.686237    -3.973043     0.642741
 C     0.160690    -3.519577     2.701127
 H    -0.711963    -3.661181     3.362579
 H     0.346402    -2.433603     2.684105
 C     1.369466    -4.238725     3.275215
 H     1.213512    -5.329207     3.310256
 H     2.267430    -4.052555     2.663970
 H     1.592894    -3.900303     4.298030
 C     2.230493     0.081928     1.593086
 C     3.291414     0.977502     1.735835
 H     3.098618     1.955666     2.177658
 C     2.445955    -1.180340     1.040106
 H     1.599918    -1.855918     0.925659
 C     4.563460     0.621942     1.296482
 H     5.397929     1.319386     1.384482
 C     3.719235    -1.545163     0.616180
 H     3.899000    -2.528087     0.178677
 C     4.768682    -0.635465     0.729973
Cl     6.342712    -1.072788     0.150067
 C     0.447597     4.058719     0.893894
 H    -0.063183     3.888829    -0.067381
 H    -0.240463     4.619714     1.548357
 C     1.734598     4.826739     0.684735
 H     1.474701     5.848098     0.355357
 H     2.237684     4.937498     1.661784
 C     2.681346     4.179789    -0.316194
 H     2.186626     4.129323    -1.301642
 H     2.860824     3.134866    -0.019644
 C     4.010233     4.904469    -0.444346
 H     3.873534     5.948279    -0.770638
 H     4.544255     4.930292     0.519583
 H     4.667859     4.409694    -1.174657
 C    -1.423756     1.568250     3.247502
 H    -0.457327     1.349621     3.728670
 H    -1.660744     2.631286     3.417430
 C    -2.515880     0.670529     3.784071
 H    -2.713631     0.943008     4.835221
 H    -3.443978     0.890775     3.227191
 C    -2.177630    -0.809402     3.668801
 H    -1.340440    -1.041215     4.349648
 H    -1.791873    -1.002925     2.655300
 C    -3.356521    -1.721284     3.962708
 H    -3.764990    -1.547332     4.971422
 H    -4.175963    -1.556726     3.243715
 H    -3.072032    -2.783020     3.901185
