 106
scf done:    -3737.451275
 C     0.254730    -1.415712    -3.214442
 H    -0.193818    -2.401600    -3.379415
 H    -0.265090    -0.603852    -3.731865
 C     1.649309    -1.312934    -2.990540
 H     2.257568    -2.224136    -2.988729
 H     2.188563    -0.426126    -3.338636
 H     0.537098     0.426392    -1.716057
Co     0.618711    -0.989547    -1.285142
 O    -1.007694     1.145241     0.265179
 C    -2.439760     0.195323    -1.921275
 C    -2.308217    -1.231416     0.565029
 O     1.781145     0.112955     1.624928
 C     3.704167    -1.084417     0.213477
 C     2.640899     1.531110    -0.387420
 P     2.116897    -0.179997    -0.011339
 P    -1.253297    -0.286483    -0.598433
 C     0.664993    -2.657802    -0.757580
 O     0.737785    -3.766089    -0.455483
 C    -1.955921     2.080299     0.560585
 C    -2.777083     1.911253     1.679929
 H    -2.635253     1.026367     2.301873
 C    -2.050690     3.233310    -0.236726
 C    -1.128341     3.461188    -1.398438
 H    -0.395665     2.649595    -1.493026
 H    -1.687009     3.531605    -2.345439
 H    -0.577942     4.407696    -1.278700
 C    -3.745509     2.860966     1.986061
 H    -4.389858     2.718514     2.856761
 C    -3.034692     4.172623     0.094496
 H    -3.129357     5.071162    -0.522175
 C    -3.885328     3.992030     1.181635
 H    -4.646079     4.741544     1.410788
 H    -1.960365     1.037856    -2.445413
 H    -2.401479    -0.642241    -2.637664
 C    -3.885821     0.518831    -1.564410
 H    -4.397681    -0.396808    -1.222078
 H    -3.932820     1.225209    -0.722155
 C    -4.654397     1.112915    -2.736726
 H    -4.633205     0.412247    -3.591599
 H    -4.132876     2.024088    -3.083197
 C    -6.095779     1.461818    -2.394267
 H    -6.615305     0.551839    -2.044900
 H    -6.098909     2.155788    -1.535084
 C    -6.862129     2.075915    -3.554360
 H    -7.898567     2.318701    -3.274798
 H    -6.902165     1.389806    -4.415797
 H    -6.384339     3.007091    -3.899527
 H    -1.723222    -1.336969     1.491306
 H    -3.199172    -0.631571     0.808555
 C    -2.717189    -2.601355     0.042571
 H    -3.289493    -2.499469    -0.897045
 H    -1.819623    -3.186069    -0.213204
 C    -3.545081    -3.382241     1.054202
 H    -4.458709    -2.810965     1.301097
 H    -2.975472    -3.457407     1.997905
 C    -3.929113    -4.775796     0.578573
 H    -4.491465    -4.693917    -0.368681
 H    -3.010495    -5.336747     0.331570
 C    -4.748293    -5.555028     1.594604
 H    -5.009011    -6.558372     1.225039
 H    -5.689298    -5.033755     1.834086
 H    -4.195141    -5.682059     2.539252
 C     0.892638    -0.547522     2.402375
 C     0.784737    -1.938769     2.403592
 H     1.432281    -2.532885     1.759452
 C     0.103928     0.236156     3.266817
 C     0.286518     1.720812     3.285092
 H     1.281031     1.986929     3.678684
 H     0.227253     2.128001     2.266117
 H    -0.474769     2.210189     3.907201
 C    -0.140261    -2.568997     3.235632
 H    -0.222648    -3.658205     3.219110
 C    -0.811207    -0.419995     4.092241
 H    -1.431718     0.179150     4.764922
 C    -0.948220    -1.809944     4.077603
 H    -1.677646    -2.295486     4.729522
 H     4.220225    -0.638674     1.079866
 H     3.437641    -2.115952     0.499670
 C     4.602852    -1.101050    -1.014458
 H     4.043087    -1.503203    -1.872974
 H     4.878402    -0.067927    -1.290293
 C     5.872535    -1.915875    -0.810163
 H     5.599730    -2.951907    -0.538577
 H     6.430419    -1.517132     0.056787
 C     6.780349    -1.936231    -2.031877
 H     6.213640    -2.328650    -2.894757
 H     7.048635    -0.898739    -2.299802
 C     8.044347    -2.756620    -1.832481
 H     8.678964    -2.751500    -2.731594
 H     7.805872    -3.806986    -1.599860
 H     8.647423    -2.365078    -0.997371
 H     2.952824     1.529212    -1.445694
 H     1.698539     2.102283    -0.351266
 C     3.690408     2.159034     0.514666
 H     3.378090     2.040293     1.565007
 H     4.648808     1.620216     0.415464
 C     3.914910     3.634380     0.212223
 H     2.956268     4.174979     0.315731
 H     4.211075     3.753258    -0.846275
 C     4.960680     4.285714     1.106186
 H     4.662031     4.156675     2.161576
 H     5.916460     3.742394     0.999370
 C     5.174815     5.761251     0.810409
 H     5.935488     6.203144     1.471726
 H     4.243411     6.334517     0.945428
 H     5.507059     5.916400    -0.228830
