  76
scf done:    -4263.547402
 C    -0.677933    -0.400210     3.359628
 H    -1.251318    -1.288255     3.639781
 H     0.089236    -0.129400     4.092109
 C    -1.275260     0.603132     2.569710
 H    -2.314076     0.515460     2.242972
 H    -0.975587     1.645133     2.718770
 H    -0.142243     0.086559     0.095409
Co     0.034193    -0.483008     1.461975
 O     0.443125     2.616129     0.757325
 C     1.982282     1.988137     2.777607
 C     2.588737     1.094041    -0.062558
 O    -0.806456    -1.955290    -1.281422
 C    -1.532861    -3.480980     0.735856
 C    -2.966761    -0.914975    -0.041537
 P    -1.310145    -1.679147     0.316903
 P     1.274921     1.219745     1.244853
 C     1.219280    -1.704945     1.775435
 O     1.973420    -2.543316     2.032813
 C    -0.680655     2.613728    -0.000469
 C    -1.854767     3.148249     0.535297
 H    -1.835508     3.551811     1.548680
 C    -0.688410     2.112001    -1.305198
 H     0.229221     1.710160    -1.734884
 C    -3.032734     3.148332    -0.204552
 H    -3.955071     3.550668     0.217285
 C    -1.863287     2.109743    -2.050978
 H    -1.878587     1.710418    -3.066469
 C    -3.035931     2.611738    -1.491433
Cl    -4.513955     2.554615    -2.397650
 H     1.047634     2.207295     3.325952
 C     2.780330     0.989241     3.610056
 H     2.936496     1.390445     4.623691
 H     2.260442     0.025520     3.702821
 H     3.772260     0.795644     3.178495
 C     2.725170     3.301785     2.571900
 H     2.152494     3.997698     1.943829
 H     2.905299     3.786659     3.544969
 H     3.707960     3.137716     2.104916
 H     2.069699     0.464918    -0.803822
 C     2.990796     2.395737    -0.745576
 H     3.586298     2.157819    -1.641703
 H     2.121842     2.989826    -1.059046
 H     3.608157     3.030570    -0.094805
 C     3.806823     0.309876     0.415852
 H     3.534918    -0.628085     0.919936
 H     4.433269     0.051706    -0.451816
 H     4.426707     0.906802     1.101781
 C     0.413956    -1.679700    -1.794074
 C     0.507071    -0.757746    -2.840187
 H    -0.407166    -0.285836    -3.202256
 C     1.569746    -2.325999    -1.346007
 H     1.505366    -3.069715    -0.551894
 C     1.742095    -0.440178    -3.397808
 H     1.820217     0.294175    -4.201187
 C     2.807799    -2.013677    -1.897462
 H     3.712925    -2.501624    -1.533167
 C     2.892098    -1.054304    -2.904797
Cl     4.446052    -0.594967    -3.525539
 H    -0.495795    -3.829531     0.573770
 C    -1.857588    -3.728748     2.203386
 H    -1.801903    -4.807295     2.419768
 H    -1.142758    -3.217540     2.862461
 H    -2.870822    -3.393719     2.468554
 C    -2.436028    -4.257848    -0.213232
 H    -2.180617    -4.060251    -1.263390
 H    -2.327959    -5.339707    -0.033201
 H    -3.496926    -4.008732    -0.060929
 H    -2.708718     0.155818     0.021899
 C    -3.548874    -1.169185    -1.425685
 H    -4.418255    -0.510002    -1.578123
 H    -2.819452    -0.951741    -2.215562
 H    -3.881910    -2.209171    -1.552631
 C    -3.973453    -1.223865     1.064316
 H    -3.554119    -1.098245     2.073385
 H    -4.835684    -0.544293     0.978150
 H    -4.357008    -2.251926     0.985391
