 110
scf done:    -3889.792152
 C    -0.914186     1.533380    -2.951541
 H    -1.644013     1.043210    -3.603996
 H    -1.244475     2.505926    -2.572139
 C     0.463638     1.306307    -3.156681
 H     0.780067     0.630410    -3.958442
 H     1.180652     2.103961    -2.946994
 H    -0.023155     1.583221    -0.736101
Co    -0.186918     0.332291    -1.497529
 O    -2.187916     1.678122     0.666990
 C    -3.529736     0.503233    -1.201677
 C    -2.151440    -1.046524     0.985264
 O     1.613731    -0.848130     0.998602
 C     2.970850    -0.944878    -1.423060
 C     2.454434     1.478458     0.288885
 P     1.658687    -0.004382    -0.484436
 P    -1.939277     0.301397    -0.276269
 C    -0.326532    -1.213939    -2.297355
 O    -0.359791    -2.228171    -2.844985
 C    -1.277748     2.315545     1.442482
 C    -0.450789     1.642325     2.343055
 H    -0.451259     0.553314     2.367184
 C    -1.245410     3.719329     1.350520
 C    -2.110654     4.409986     0.343340
 H    -1.881777     4.054119    -0.673738
 H    -3.175980     4.192191     0.517348
 H    -1.965816     5.498347     0.373682
 C     0.389112     2.360688     3.192439
 H     1.031775     1.822094     3.892936
 C    -0.396617     4.414830     2.213767
 H    -0.368555     5.506358     2.154156
 C     0.411991     3.750912     3.137531
 H     1.065759     4.320016     3.801930
 H    -3.333353     1.484739    -1.673114
 C    -4.805506     0.647253    -0.372018
 H    -4.648552     1.364735     0.446405
 H    -5.055410    -0.323179     0.089929
 C    -5.969370     1.083646    -1.258347
 H    -6.889922     1.167590    -0.657910
 H    -5.761671     2.095191    -1.652016
 C    -6.178426     0.121397    -2.422400
 H    -6.992605     0.476355    -3.074922
 H    -6.503798    -0.857745    -2.025778
 C    -4.896538    -0.069752    -3.226000
 H    -4.631791     0.880241    -3.724839
 H    -5.051650    -0.809151    -4.028268
 C    -3.734327    -0.501885    -2.336721
 H    -3.950635    -1.499532    -1.921815
 H    -2.814985    -0.604255    -2.929840
 H    -1.111640    -1.206311     1.325187
 C    -2.604698    -2.365608     0.353497
 H    -1.982084    -2.616657    -0.519744
 H    -3.639905    -2.254995    -0.011686
 C    -2.555609    -3.498901     1.373161
 H    -2.915958    -4.432208     0.910547
 H    -1.506296    -3.677373     1.654719
 C    -3.362232    -3.174113     2.623878
 H    -3.265765    -3.988229     3.360507
 H    -4.435816    -3.112481     2.366788
 C    -2.920881    -1.848510     3.232934
 H    -1.878530    -1.941600     3.589206
 H    -3.533376    -1.603823     4.116016
 C    -3.002181    -0.716225     2.213608
 H    -4.052183    -0.576264     1.913637
 H    -2.685697     0.233683     2.666951
 C     1.307545    -2.142084     1.241052
 C     1.041683    -3.085226     0.244490
 H     1.026516    -2.788611    -0.801857
 C     1.304804    -2.524606     2.599259
 C     1.571654    -1.503548     3.661872
 H     2.498156    -0.946246     3.455975
 H     0.763175    -0.756451     3.711752
 H     1.655980    -1.976019     4.649844
 C     0.813661    -4.418298     0.582890
 H     0.615907    -5.142031    -0.211016
 C     1.070148    -3.865373     2.907189
 H     1.080674    -4.167796     3.958076
 C     0.834495    -4.817806     1.915017
 H     0.659517    -5.861140     2.184870
 H     2.377345    -1.689031    -1.985389
 C     4.023133    -1.715243    -0.620751
 H     3.553010    -2.356002     0.137504
 H     4.670186    -1.009850    -0.078244
 C     4.880952    -2.563639    -1.556063
 H     5.642441    -3.108075    -0.974408
 H     4.243700    -3.333204    -2.028462
 C     5.541651    -1.718025    -2.638992
 H     6.120984    -2.354993    -3.326963
 H     6.267533    -1.031134    -2.166651
 C     4.512718    -0.899692    -3.410286
 H     3.860280    -1.579653    -3.987311
 H     5.010578    -0.248303    -4.146919
 C     3.647460    -0.059783    -2.475517
 H     4.282817     0.687547    -1.970247
 H     2.896040     0.498431    -3.050577
 H     1.700560     1.693619     1.066177
 C     2.513348     2.716973    -0.605599
 H     1.525251     2.888702    -1.056315
 H     3.224854     2.558176    -1.433733
 C     2.932823     3.944397     0.198042
 H     3.009561     4.817711    -0.470064
 H     2.137050     4.174466     0.926836
 C     4.245929     3.722993     0.939213
 H     4.498607     4.607782     1.546207
 H     5.065171     3.605705     0.205987
 C     4.179822     2.476920     1.814162
 H     3.433683     2.632021     2.613501
 H     5.146661     2.303273     2.314505
 C     3.787168     1.247708     0.999046
 H     4.578074     1.052788     0.254711
 H     3.724706     0.359040     1.643938
