  98
scf done:    -4032.437519
 C    -0.767662    -3.741210    -0.599677
 H    -1.256663    -4.269189     0.225750
 H    -1.381243    -3.667791    -1.502052
 C     0.636007    -3.718276    -0.692344
 H     1.251516    -4.220653     0.061246
 H     1.118327    -3.627755    -1.670087
 H    -0.165395    -1.576983    -1.477669
Co    -0.057485    -1.925647    -0.043923
 O    -1.919354     0.310976    -1.359482
 C    -3.352828    -1.725043    -0.307043
 C    -2.230832     0.325296     1.347061
 O     1.905519     0.200201     1.239936
 C     3.238964    -1.816008     0.020121
 C     2.127049     0.353974    -1.482331
 P     1.727485    -0.800019    -0.127016
 P    -1.818253    -0.769639    -0.056819
 C     0.023632    -2.290940     1.674209
 O     0.070846    -2.535569     2.794862
 C    -2.577908     1.507420    -1.314879
 C    -3.894450     1.617411    -1.756204
 H    -4.416195     0.728791    -2.114031
 C    -1.906661     2.641154    -0.850173
 H    -0.876429     2.537545    -0.506532
 C    -4.533190     2.856348    -1.719455
 H    -5.567737     2.931754    -2.065753
 C    -2.556793     3.868078    -0.816316
 H    -2.021806     4.745023    -0.440975
 C    -3.884583     4.000390    -1.245889
 C    -4.579255     5.330227    -1.190249
 H    -4.656509     5.696311    -0.153742
 H    -5.597004     5.270323    -1.600629
 H    -4.030080     6.094949    -1.762188
 C    -3.846041    -1.948192    -1.594834
 H    -3.367565    -1.461978    -2.447868
 C    -3.943427    -2.379610     0.780137
 H    -3.542776    -2.222872     1.786582
 C    -4.936331    -2.797368    -1.778586
 H    -5.324363    -2.972456    -2.785224
 C    -5.037760    -3.230710     0.609460
 C    -5.685224    -3.902136     1.785738
 H    -5.050352    -3.845679     2.680960
 H    -6.649266    -3.426593     2.030933
 H    -5.891045    -4.963112     1.578191
 C    -5.527773    -3.429263    -0.688779
 H    -6.380666    -4.095839    -0.844821
 C    -3.529956     0.792012     1.594437
 H    -4.367935     0.432094     0.994531
 C    -1.168100     0.799777     2.119008
 H    -0.155142     0.441246     1.916577
 C    -3.741287     1.727197     2.600299
 H    -4.750514     2.099143     2.792912
 C    -1.369050     1.741148     3.136851
 C    -0.205708     2.228438     3.950350
 H     0.268140     1.396493     4.494727
 H     0.573242     2.667796     3.307366
 H    -0.513706     2.985241     4.685387
 C    -2.670090     2.198554     3.361517
 H    -2.850201     2.935724     4.149292
 C     2.688427     1.316484     1.304298
 C     2.161707     2.547082     0.904246
 H     1.143256     2.582269     0.514243
 C     3.993086     1.250572     1.790641
 H     4.402736     0.286785     2.095612
 C     2.940082     3.695440     0.982246
 H     2.517610     4.649388     0.654389
 C     4.761647     2.411140     1.863904
 H     5.785728     2.347302     2.242395
 C     4.256064     3.651388     1.461527
 C     5.082295     4.901355     1.557503
 H     4.983619     5.519178     0.651931
 H     6.147929     4.670144     1.696333
 H     4.765469     5.524407     2.410464
 C     3.657077    -2.240753     1.287593
 H     3.144036    -1.871760     2.178877
 C     3.877462    -2.317751    -1.116545
 H     3.543923    -1.996915    -2.107980
 C     4.719470    -3.131423     1.401103
 H     5.053164    -3.455802     2.389927
 C     4.942799    -3.220531    -1.015682
 C     5.598499    -3.761512    -2.253076
 H     4.963943    -4.526533    -2.730276
 H     5.765254    -2.969310    -2.998353
 H     6.567188    -4.228676    -2.026251
 C     5.359072    -3.614754     0.259775
 H     6.193694    -4.314033     0.359992
 C     3.423892     0.858324    -1.666573
 H     4.251052     0.492352    -1.055794
 C     1.081413     0.838681    -2.269689
 H     0.074912     0.440454    -2.120402
 C     3.648339     1.839351    -2.624699
 H     4.655831     2.237191    -2.767650
 C     1.294519     1.832249    -3.234548
 C     0.144587     2.345877    -4.051200
 H    -0.369643     1.523545    -4.572094
 H    -0.608151     2.832013    -3.409801
 H     0.475812     3.074667    -4.804270
 C     2.592183     2.324248    -3.397796
 H     2.781343     3.099466    -4.145976
