  92
scf done:    -4152.241536
 C    -1.051287     1.758904     3.687503
 H    -1.336512     2.815999     3.646847
 H    -1.845620     1.104361     4.059753
 C     0.303543     1.410720     3.922384
 H     1.046073     2.204367     4.064770
 H     0.536427     0.490243     4.467308
 H    -0.621161    -0.259196     2.499244
Co    -0.192869     1.066608     2.007540
 O    -1.855065    -1.017342     0.380426
 C    -3.488212     1.035996     1.351049
 C    -1.758506     1.276388    -1.032292
 O     1.561060     0.272587    -0.485596
 C     3.047616     0.237310     1.914774
 C     1.185079    -1.915133     1.116912
 P     1.377246    -0.066227     1.155861
 P    -1.794922     0.635315     0.705231
 C     0.417851     2.635305     1.489399
 O     0.914410     3.644520     1.256376
 C    -2.876032    -1.797607    -0.075211
 C    -3.394610    -1.677915    -1.367135
 H    -3.007269    -0.917327    -2.043985
 C    -3.348873    -2.802039     0.772098
 H    -2.911278    -2.893981     1.767848
 C    -4.419533    -2.520074    -1.786068
 H    -4.855692    -2.428030    -2.781960
 C    -4.365156    -3.655061     0.353286
 H    -4.753577    -4.441763     1.002576
 C    -4.899363    -3.493268    -0.918744
 F    -5.890099    -4.291940    -1.317703
 H    -3.398248     2.108100     1.593147
 H    -3.527409     0.520321     2.322650
 C    -4.717464     0.751006     0.539200
 C    -5.552059    -0.322104     0.876429
 H    -5.305389    -0.937588     1.744226
 C    -5.073569     1.541444    -0.562163
 H    -4.472053     2.414307    -0.825998
 C    -6.675066    -0.627868     0.114273
 H    -7.300056    -1.480452     0.390041
 C    -6.197972     1.238380    -1.328151
 H    -6.452780     1.867689    -2.184335
 C    -6.997785     0.146036    -0.999836
 H    -7.876360    -0.095168    -1.602524
 H    -2.750618     1.148551    -1.492690
 H    -1.059026     0.590688    -1.533185
 C    -1.259792     2.682598    -1.174738
 C    -0.079397     2.929140    -1.885313
 H     0.460261     2.089933    -2.329542
 C    -1.927235     3.772118    -0.599172
 H    -2.844791     3.613402    -0.027822
 C     0.420208     4.221687    -2.019193
 H     1.347916     4.385659    -2.572844
 C    -1.429093     5.065952    -0.729930
 H    -1.961393     5.899829    -0.266340
 C    -0.251830     5.295650    -1.439358
 H     0.142825     6.309686    -1.535345
 C     2.665990     0.668620    -1.173394
 C     3.235941    -0.194925    -2.112290
 H     2.811436    -1.189452    -2.247711
 C     3.188152     1.954331    -0.998349
 H     2.708449     2.641478    -0.298949
 C     4.341863     0.213175    -2.851544
 H     4.805728    -0.448558    -3.585202
 C     4.302735     2.361242    -1.729590
 H     4.730208     3.357684    -1.604398
 C     4.869950     1.482852    -2.644970
 F     5.934998     1.870221    -3.348049
 H     2.781987     0.354633     2.976722
 H     3.349883     1.238092     1.569587
 C     4.155846    -0.758820     1.763599
 C     5.082412    -0.684453     0.716278
 H     5.017200     0.130057    -0.006211
 C     4.290735    -1.796684     2.696529
 H     3.599057    -1.851319     3.542376
 C     6.087528    -1.639176     0.585648
 H     6.794633    -1.563723    -0.243827
 C     5.297160    -2.752123     2.569658
 H     5.381675    -3.552874     3.308203
 C     6.195163    -2.682085     1.505314
 H     6.984073    -3.430499     1.400587
 H     0.109102    -2.060013     1.278489
 H     1.716498    -2.302179     1.999635
 C     1.614346    -2.610913    -0.139056
 C     2.864173    -3.226970    -0.261431
 H     3.558951    -3.214876     0.579591
 C     0.739127    -2.646964    -1.234148
 H    -0.239998    -2.172604    -1.142299
 C     3.234510    -3.853763    -1.450584
 H     4.217190    -4.325767    -1.524799
 C     1.106760    -3.274740    -2.421011
 H     0.408816    -3.294207    -3.261620
 C     2.360343    -3.878209    -2.536098
 H     2.650947    -4.370619    -3.467234
