  96
scf done:    -4453.059586
 C    -1.329400    -2.147312     3.017700
 H    -1.965360    -1.738957     3.808841
 H    -1.804763    -2.926343     2.415104
 C     0.068672    -2.136946     3.163952
 H     0.520931    -1.717387     4.068112
 H     0.680133    -2.898051     2.672278
 H    -0.418317    -1.754245     0.831019
Co    -0.504028    -0.701986     1.856934
 O    -2.755343    -1.147221    -0.457773
 O    -3.376981     0.583540     1.184402
 O    -1.484690     1.066947    -0.466494
 O     1.736416     1.364490     0.926622
 O     2.657414    -0.939288     1.550769
 O     1.403817    -0.608945    -0.649807
 P     1.297346    -0.230578     0.944410
 P    -2.016843    -0.097645     0.585519
 C    -0.607856     0.625443     3.017953
 O    -0.671615     1.498674     3.754954
 C    -2.058347    -2.095273    -1.162922
 C    -2.373431    -3.438149    -0.956898
 H    -3.148957    -3.697049    -0.234310
 C    -1.073626    -1.735781    -2.085641
 H    -0.810205    -0.686842    -2.218169
 C    -1.701467    -4.426988    -1.670135
 H    -1.925026    -5.485162    -1.524339
 C    -0.400147    -2.721831    -2.800859
 H     0.388750    -2.466480    -3.509997
 C    -0.719208    -4.055458    -2.580730
 F    -0.058092    -5.002981    -3.245723
 C    -4.697928     0.417847     0.806325
 C    -5.314621     1.402823     0.041758
 H    -4.737528     2.267750    -0.284054
 C    -5.403827    -0.696210     1.281927
 C    -4.732588    -1.713675     2.148718
 H    -3.973057    -2.276078     1.585014
 H    -4.206751    -1.232171     2.986306
 H    -5.460050    -2.429295     2.554462
 C    -6.660146     1.272287    -0.293009
 H    -7.140855     2.044981    -0.897034
 C    -6.752198    -0.802036     0.927841
 H    -7.320731    -1.664005     1.287390
 C    -7.380192     0.163502     0.143797
 H    -8.435359     0.053019    -0.116023
 C    -2.250331     1.985367    -1.143137
 C    -2.866819     1.642954    -2.343109
 H    -2.781953     0.621678    -2.716602
 C    -2.336697     3.276084    -0.599623
 C    -1.691773     3.581364     0.716891
 H    -2.222478     3.066476     1.534131
 H    -0.650196     3.228657     0.748404
 H    -1.706328     4.659298     0.925249
 C    -3.602308     2.605114    -3.031378
 H    -4.096453     2.341213    -3.968856
 C    -3.075364     4.222579    -1.316692
 H    -3.160159     5.236292    -0.916284
 C    -3.705709     3.896400    -2.517665
 H    -4.279090     4.655939    -3.053708
 C     2.273267     2.083195    -0.114856
 C     1.460466     2.456117    -1.185908
 H     0.421302     2.129694    -1.200558
 C     3.610270     2.474780    -0.068223
 H     4.231725     2.178992     0.777574
 C     1.989948     3.213914    -2.226692
 H     1.374991     3.515652    -3.076278
 C     4.141996     3.232518    -1.108648
 H     5.186496     3.548491    -1.100128
 C     3.327434     3.590549    -2.176496
 F     3.838976     4.313954    -3.172494
 C     3.898816    -0.369845     1.728818
 C     4.918807    -0.666021     0.827774
 H     4.709578    -1.323669    -0.016290
 C     4.114371     0.450199     2.847409
 C     3.008301     0.738300     3.814258
 H     2.318316     1.494528     3.407680
 H     2.413296    -0.164897     4.013068
 H     3.404449     1.117231     4.765922
 C     6.181656    -0.109209     1.011316
 H     6.978659    -0.334876     0.299508
 C     5.393505     0.995270     3.004968
 H     5.584370     1.640803     3.866511
 C     6.418336     0.731133     2.097526
 H     7.405587     1.173871     2.247321
 C     2.410865    -1.224580    -1.354391
 C     3.151266    -0.459868    -2.254483
 H     2.942472     0.606614    -2.336795
 C     2.620793    -2.605812    -1.212793
 C     1.824311    -3.431449    -0.251612
 H     2.234516    -3.345508     0.767309
 H     0.778015    -3.098557    -0.206839
 H     1.839918    -4.490121    -0.543744
 C     4.144275    -1.061724    -3.021413
 H     4.725983    -0.458019    -3.721440
 C     3.627189    -3.181228    -1.998153
 H     3.807431    -4.255529    -1.905951
 C     4.388233    -2.427503    -2.888743
 H     5.165044    -2.910350    -3.485725
