  80
scf done:    -5832.993142
 C    -1.504927    -0.536897    -3.297135
 H    -1.988136    -1.461823    -3.628771
 H    -2.149046     0.345872    -3.343536
 C    -0.111985    -0.394285    -3.443879
 H     0.468822    -1.210223    -3.884352
 H     0.318753     0.597751    -3.609253
 H    -0.653856     0.777689    -1.436363
Co    -0.585456    -0.694136    -1.494611
 O    -3.230084     0.995388    -0.662074
 C    -3.599403    -1.532489    -0.126942
 C    -1.944277     0.070637     1.501591
 O     1.430938    -1.155326     0.920191
 C     2.831315    -0.580114    -1.318582
 C     1.422797     1.447183     0.106989
 P     1.226848    -0.261946    -0.503299
 P    -2.248222    -0.308822    -0.262577
 C    -0.449596    -2.443349    -1.384288
 O    -0.315999    -3.577648    -1.258905
 C    -2.856854     2.125621    -1.323915
 C    -3.611269     2.498489    -2.439549
 H    -4.428537     1.848715    -2.757396
 C    -1.804970     2.938424    -0.891144
 H    -1.211018     2.657180    -0.020490
 C    -3.325416     3.678380    -3.118155
 H    -3.904028     3.988523    -3.990026
 C    -1.517938     4.122648    -1.567373
 H    -0.711871     4.777210    -1.233572
 C    -2.278420     4.477842    -2.672721
 F    -2.002146     5.610928    -3.319302
 C    -4.516350    -1.498499     0.930919
 H    -4.413658    -0.749291     1.719187
 C    -3.748601    -2.502181    -1.122379
 H    -3.042618    -2.529570    -1.953942
 C    -5.558386    -2.416273     0.997611
 H    -6.272866    -2.395805     1.821992
 C    -4.785768    -3.428106    -1.068390
 H    -4.901041    -4.188405    -1.842253
 C    -5.685305    -3.378822    -0.004894
Cl    -6.975008    -4.528016     0.076562
 C    -1.212451    -0.850983     2.260350
 H    -0.859041    -1.778019     1.804468
 C    -2.375476     1.257556     2.100953
 H    -2.972250     1.968782     1.527030
 C    -0.885835    -0.580915     3.584231
 H    -0.301319    -1.290097     4.172284
 C    -2.043526     1.546556     3.423048
 H    -2.363435     2.479715     3.889629
 C    -1.289046     0.629595     4.152512
Cl    -0.835219     1.001294     5.780874
 C     2.642677    -1.507323     1.448245
 C     3.283468    -0.694424     2.384258
 H     2.819168     0.241798     2.694938
 C     3.227634    -2.712001     1.050943
 H     2.704286    -3.336522     0.324808
 C     4.516197    -1.076800     2.909561
 H     5.037653    -0.458728     3.642587
 C     4.460027    -3.095575     1.567742
 H     4.939800    -4.027935     1.265215
 C     5.093084    -2.268379     2.489196
 F     6.276111    -2.629897     2.983741
 C     2.901051    -1.597051    -2.276317
 H     1.983653    -2.091323    -2.600139
 C     4.017602     0.043680    -0.907725
 H     3.989533     0.832510    -0.153419
 C     4.121819    -1.994868    -2.811584
 H     4.176527    -2.789984    -3.556572
 C     5.244376    -0.340720    -1.435831
 H     6.169123     0.138619    -1.111411
 C     5.288922    -1.363282    -2.384152
Cl     6.812001    -1.853021    -3.037106
 C     1.026261     1.793889     1.401669
 H     0.704787     1.017290     2.097633
 C     1.805267     2.459828    -0.781714
 H     2.103113     2.209713    -1.803348
 C     1.007527     3.126231     1.808400
 H     0.684731     3.394453     2.815626
 C     1.801685     3.791784    -0.384720
 H     2.101972     4.582062    -1.074716
 C     1.391310     4.118893     0.908763
Cl     1.332984     5.780981     1.385529
