 102
scf done:    -4333.083724
 C    -0.632886    -3.657478     0.688944
 H    -1.163697    -3.560789     1.639569
 H    -1.200363    -4.175975    -0.091050
 C     0.774613    -3.657187     0.665723
 H     1.341861    -3.574093     1.597039
 H     1.311321    -4.181366    -0.132515
 H     0.098123    -1.512527     1.508302
Co     0.061108    -1.856469     0.071881
 O     1.964868     0.286389     1.511807
 C     3.333587    -1.723306     0.373753
 C     2.235551     0.468380    -1.201880
 O    -1.913520     0.150312    -1.360967
 C    -3.220667    -1.814667    -0.077053
 C    -2.138632     0.486325     1.357791
 P    -1.741600    -0.749633     0.073898
 P     1.836429    -0.706064     0.143517
 C     0.057844    -2.248157    -1.642206
 O     0.057513    -2.528446    -2.756155
 C     2.504776     1.537854     1.556848
 C     3.717306     1.750465     2.212769
 H     4.247032     0.897713     2.639133
 C     1.829682     2.622817     0.993806
 H     0.882968     2.451672     0.481592
 C     4.247191     3.035369     2.293714
 H     5.200092     3.187013     2.809228
 C     2.375026     3.899955     1.073878
 H     1.838737     4.735272     0.615174
 C     3.592430     4.133814     1.723606
 C     4.158413     5.520559     1.832135
 H     3.954226     6.111314     0.926698
 H     5.246918     5.501464     1.988066
 H     3.716123     6.066662     2.682472
 C     3.934421    -1.886424     1.617544
 H     3.544973    -1.318648     2.464784
 C     3.793494    -2.486275    -0.714352
 O     3.125783    -2.296183    -1.869051
 C     3.435687    -3.066536    -2.994989
 H     4.456893    -2.860415    -3.360539
 H     2.709308    -2.787880    -3.768037
 H     3.339324    -4.146300    -2.786362
 C     5.006503    -2.765991     1.784796
 H     5.469845    -2.883547     2.766750
 C     4.867853    -3.363059    -0.557450
 H     5.236213    -3.946866    -1.401668
 C     5.472001    -3.494185     0.695145
 H     6.311029    -4.184312     0.812856
 C     1.181846     0.871937    -2.022877
 H     0.194473     0.431678    -1.867370
 C     3.508570     1.047114    -1.393854
 O     4.490810     0.628078    -0.581475
 C     5.743923     1.247050    -0.618663
 H     6.236784     1.115686    -1.597738
 H     6.351176     0.756859     0.152705
 H     5.668500     2.323521    -0.387314
 C     1.359935     1.838390    -3.011924
 H     0.515388     2.144816    -3.631972
 C     3.691209     2.015941    -2.385350
 H     4.668463     2.475543    -2.533607
 C     2.617216     2.406706    -3.184701
 H     2.775760     3.169477    -3.951482
 C    -2.580280     1.319804    -1.561457
 C    -2.094484     2.517663    -1.034368
 H    -1.196340     2.504776    -0.416513
 C    -3.728015     1.336452    -2.357181
 H    -4.106723     0.396273    -2.759806
 C    -2.765094     3.711730    -1.287530
 H    -2.376411     4.638966    -0.857444
 C    -4.381391     2.537950    -2.609754
 H    -5.280384     2.534283    -3.233228
 C    -3.918482     3.748901    -2.077762
 C    -4.617220     5.044156    -2.377135
 H    -4.419660     5.797695    -1.600918
 H    -5.706714     4.908530    -2.450689
 H    -4.278382     5.467764    -3.337710
 C    -3.709713    -2.165630    -1.332782
 H    -3.244394    -1.725204    -2.217014
 C    -3.781570    -2.414892     1.064354
 O    -3.226062    -2.062168     2.241321
 C    -3.731321    -2.588534     3.433496
 H    -4.792037    -2.319393     3.581273
 H    -3.135792    -2.149615     4.243772
 H    -3.632341    -3.687809     3.469250
 C    -4.766031    -3.068237    -1.467936
 H    -5.137814    -3.330416    -2.460709
 C    -4.843495    -3.312710     0.937636
 H    -5.289298    -3.772322     1.820227
 C    -5.332977    -3.632230    -0.330326
 H    -6.161054    -4.339527    -0.420124
 C    -1.109246     0.909139     2.198292
 H    -0.129281     0.437037     2.102227
 C    -3.411271     1.084352     1.484879
 O    -4.372246     0.635361     0.663999
 C    -5.608187     1.288466     0.607258
 H    -6.155889     1.210360     1.562676
 H    -6.185927     0.784417    -0.177222
 H    -5.488987     2.351368     0.336893
 C    -1.308608     1.920583     3.137569
 H    -0.481599     2.243562     3.772658
 C    -3.615161     2.097195     2.426732
 H    -4.592150     2.570963     2.522718
 C    -2.563170     2.511020     3.243528
 H    -2.736888     3.308137     3.971118
