  96
scf done:    -4452.908178
 C    -0.759047    -1.913740    -2.174496
 H     0.130613    -2.508363    -2.404745
 H    -1.695038    -2.482200    -2.193303
 C    -0.774844    -0.534641    -2.475788
 H     0.093430    -0.056075    -2.941141
 H    -1.723383    -0.060375    -2.751272
 H    -0.449473     0.528672     0.162173
Co    -0.553160    -0.825028    -0.481015
 O    -2.929214     1.333618    -0.834329
 C    -3.896372    -1.077168    -0.774447
 C    -2.933035     0.144900     1.620037
 O     1.845571    -0.039435     1.288899
 C     2.792326    -1.488836    -0.825575
 C     2.056732     1.246590    -1.090497
 P     1.487369    -0.310762    -0.345314
 P    -2.491645    -0.127444    -0.122255
 C    -0.529545    -2.136579     0.656336
 O    -0.510093    -3.022926     1.396006
 C    -2.158895     2.455040    -0.760588
 C    -1.507041     2.907057    -1.910304
 H    -1.572695     2.315111    -2.823433
 C    -2.070817     3.186407     0.426779
 H    -2.587044     2.827187     1.317964
 C    -0.788447     4.097595    -1.885533
 H    -0.268751     4.464861    -2.772021
 C    -1.340629     4.372393     0.460121
 H    -1.258998     4.963789     1.373844
 C    -0.717800     4.813187    -0.698240
 F    -0.011536     5.954443    -0.660634
 C    -4.018736    -2.418463    -0.374101
 H    -3.300384    -2.843940     0.332456
 C    -4.814807    -0.564154    -1.689613
 H    -4.724350     0.474851    -2.010342
 C    -5.041463    -3.212346    -0.862074
 H    -5.150367    -4.253946    -0.554725
 C    -5.845633    -1.358538    -2.195014
 H    -6.546574    -0.927398    -2.910139
 C    -5.965306    -2.688842    -1.781120
 O    -6.921438    -3.535394    -2.206929
 C    -7.867488    -3.077038    -3.131640
 H    -7.395494    -2.755785    -4.076903
 H    -8.538956    -3.919795    -3.339002
 H    -8.462166    -2.237890    -2.729352
 C    -4.266916     0.353370     2.008205
 H    -5.063352     0.296842     1.261621
 C    -1.930351     0.219359     2.588839
 H    -0.889187     0.073929     2.288291
 C    -4.583391     0.626669     3.327475
 H    -5.614850     0.787428     3.646553
 C    -2.236601     0.490361     3.920972
 H    -1.429841     0.537837     4.652473
 C    -3.569190     0.695839     4.297562
 O    -3.969891     0.961393     5.552916
 C    -3.009278     1.032496     6.570692
 H    -2.276760     1.838002     6.387380
 H    -3.551509     1.250153     7.499380
 H    -2.466117     0.078685     6.688482
 C     3.064328    -0.316957     1.839277
 C     4.060179     0.658886     1.902973
 H     3.864794     1.650870     1.493486
 C     3.302562    -1.593896     2.353612
 H     2.508545    -2.340658     2.294283
 C     5.296872     0.356429     2.469424
 H     6.092915     1.100850     2.529139
 C     4.536651    -1.902259     2.915380
 H     4.748538    -2.895097     3.316031
 C     5.521844    -0.922218     2.962630
 F     6.708253    -1.215971     3.497859
 C     4.134863    -1.112152    -1.014840
 H     4.415301    -0.057820    -0.974322
 C     2.473541    -2.847724    -0.877993
 H     1.437943    -3.159181    -0.726481
 C     5.114424    -2.062322    -1.238924
 H     6.159640    -1.780606    -1.378079
 C     3.449275    -3.816535    -1.104086
 H     3.159995    -4.866875    -1.137383
 C     4.781329    -3.426004    -1.282429
 O     5.797938    -4.276315    -1.500656
 C     5.535311    -5.652197    -1.544462
 H     4.840663    -5.910781    -2.362626
 H     6.496617    -6.149566    -1.723956
 H     5.115246    -6.018925    -0.591657
 C     2.474432     1.304292    -2.429259
 H     2.546645     0.387504    -3.020381
 C     1.981010     2.436619    -0.365154
 H     1.623115     2.412470     0.666915
 C     2.816264     2.513818    -3.014172
 H     3.142034     2.570206    -4.054452
 C     2.343076     3.655163    -0.934088
 H     2.263465     4.565789    -0.341186
 C     2.755276     3.701609    -2.271028
 O     3.094376     4.829169    -2.922147
 C     3.067192     6.047208    -2.224388
 H     3.778224     6.046527    -1.379370
 H     3.368163     6.823113    -2.939420
 H     2.059285     6.276234    -1.841734
