 100
scf done:    -3857.256580
 C     1.099364     2.510645    -2.349648
 H     1.693992     3.352372    -1.977910
 H     1.635856     1.841795    -3.029356
 C    -0.301301     2.639654    -2.453559
 H    -0.784020     3.579527    -2.165368
 H    -0.831358     2.088888    -3.237011
 H     0.100325     0.298171    -1.800544
Co     0.189069     1.462629    -0.880767
 O     2.572232    -0.362014    -1.735928
 C     3.297574     1.247357     0.406389
 C     1.679385    -1.125268     0.732068
 O    -1.443903    -0.899872     0.378770
 C    -2.788271     1.451087     0.759653
 C    -2.758101     0.138188    -1.807959
 P    -1.656584     0.589817    -0.405285
 P     1.890259     0.333409    -0.356450
 C     0.249786     2.647110     0.401371
 O     0.284577     3.383345     1.286747
 C     3.845642    -0.827666    -1.832038
 C     4.143717    -2.156789    -1.517302
 H     3.338293    -2.819640    -1.197247
 C     4.859692     0.019438    -2.289051
 H     4.606502     1.044570    -2.565347
 C     5.452557    -2.622999    -1.610050
 H     5.708702    -3.654984    -1.363475
 C     6.170225    -0.439732    -2.381600
 H     6.978149     0.207514    -2.727636
 C     6.453389    -1.754579    -2.029613
 F     7.708696    -2.196108    -2.111264
 H     3.693314     1.887470    -0.400766
 H     2.822894     1.947202     1.114953
 C     4.419996     0.481333     1.097264
 H     4.030388    -0.001551     2.009454
 H     4.787892    -0.335260     0.458035
 C     5.595458     1.376078     1.464273
 H     5.248435     2.198657     2.116129
 H     5.976990     1.860435     0.546766
 C     6.732330     0.626927     2.144620
 H     6.348958     0.138441     3.058117
 H     7.064461    -0.193690     1.484136
 C     7.916053     1.513318     2.495771
 H     8.721053     0.942886     2.983339
 H     7.619866     2.323601     3.181399
 H     8.341724     1.985079     1.595443
 H     0.958245    -1.769201     0.204702
 H     2.629790    -1.674673     0.825454
 C     1.117856    -0.739524     2.095157
 H     1.890414    -0.229906     2.697475
 H     0.307918    -0.007441     1.945115
 C     0.561615    -1.926958     2.866282
 H     1.368362    -2.653678     3.072978
 H    -0.164601    -2.454498     2.224145
 C    -0.120665    -1.535721     4.168777
 H     0.609448    -1.041138     4.833781
 H    -0.887060    -0.770178     3.950678
 C    -0.763863    -2.710859     4.886765
 H    -1.247532    -2.401222     5.825789
 H    -0.018775    -3.483450     5.136121
 H    -1.531321    -3.186869     4.254899
 C    -2.389337    -1.848403     0.608215
 C    -2.536089    -2.908384    -0.291791
 H    -1.898035    -2.941627    -1.176706
 C    -3.171512    -1.811318     1.766605
 H    -3.024639    -1.001323     2.482439
 C    -3.484664    -3.900272    -0.061154
 H    -3.619296    -4.732503    -0.754439
 C    -4.120418    -2.802472     2.004425
 H    -4.742353    -2.791158     2.901327
 C    -4.272999    -3.830923     1.081976
 F    -5.183800    -4.777839     1.304881
 H    -3.671387     0.824948     0.965004
 H    -2.228669     1.548961     1.705620
 C    -3.207937     2.826448     0.254975
 H    -2.311362     3.411672    -0.007058
 H    -3.778840     2.722443    -0.684567
 C    -4.040851     3.601974     1.265543
 H    -3.462338     3.711057     2.200731
 H    -4.937976     3.013992     1.532911
 C    -4.464594     4.977559     0.770601
 H    -3.563051     5.555431     0.501076
 H    -5.037249     4.864045    -0.167112
 C    -5.288845     5.755848     1.783137
 H    -5.579290     6.744642     1.397159
 H    -4.726208     5.915718     2.716971
 H    -6.213424     5.216571     2.045494
 H    -2.660246     0.969172    -2.525078
 H    -2.253739    -0.715306    -2.292630
 C    -4.226895    -0.168706    -1.541553
 H    -4.334601    -0.860828    -0.692178
 H    -4.751631     0.755592    -1.245875
 C    -4.924218    -0.776065    -2.750704
 H    -4.393057    -1.699990    -3.044374
 H    -4.835159    -0.091844    -3.614225
 C    -6.390476    -1.098820    -2.500788
 H    -6.463521    -1.778436    -1.633129
 H    -6.918902    -0.175931    -2.202327
 C    -7.085505    -1.722206    -3.700157
 H    -8.141798    -1.945815    -3.487305
 H    -6.599506    -2.665683    -3.996786
 H    -7.056912    -1.050347    -4.573128
