  96
scf done:    -4453.053391
 C    -0.552938    -2.464851    -3.084163
 H    -1.098949    -3.271307    -2.586532
 H    -1.116565    -1.947953    -3.866918
 C     0.848754    -2.480011    -3.114391
 H     1.404510    -3.295137    -2.644345
 H     1.387071    -1.975540    -3.922095
 H     0.210848    -2.292525    -0.768247
Co     0.201792    -1.155699    -1.708995
 O     2.099919    -1.392123     0.902803
 O     3.284550    -1.581122    -1.260451
 O     2.394962     0.728468    -0.502792
 O    -2.811300    -0.266339    -1.790556
 O    -2.331693    -2.245320    -0.251049
 O    -1.917823     0.021939     0.577912
 P    -1.633103    -0.865029    -0.788483
 P     1.949453    -0.857105    -0.662299
 C     0.237814     0.285440    -2.723827
 O     0.262470     1.238111    -3.359320
 C     1.054308    -1.272757     1.786513
 C     0.259211    -2.388580     2.045645
 H     0.470953    -3.325473     1.529102
 C     0.809283    -0.060411     2.430136
 H     1.434491     0.806470     2.212889
 C    -0.801287    -2.288129     2.938721
 H    -1.451710    -3.139291     3.145990
 C    -0.252637     0.044982     3.323607
 H    -0.488418     0.989807     3.815281
 C    -1.049518    -1.067419     3.553669
 F    -2.104455    -0.957713     4.366832
 C     4.565040    -1.596374    -0.746932
 C     4.879998    -2.347499     0.380903
 H     4.100033    -2.926905     0.874179
 C     5.550809    -0.867165    -1.407609
 H     5.282413    -0.298838    -2.299199
 C     6.181969    -2.314894     0.876382
 H     6.423804    -2.895668     1.770829
 C     6.843014    -0.844377    -0.898491
 H     7.606059    -0.251349    -1.410041
 C     7.181006    -1.553949     0.261311
 C     8.565661    -1.472697     0.835314
 H     8.765396    -2.301160     1.529650
 H     8.704725    -0.532487     1.395523
 H     9.332767    -1.496210     0.046777
 C     3.586177     1.281675    -0.095956
 C     4.151311     2.247734    -0.923840
 H     3.630395     2.519036    -1.844197
 C     4.213704     0.926593     1.098428
 H     3.771575     0.168600     1.743737
 C     5.369415     2.826100    -0.577387
 H     5.811129     3.576636    -1.238722
 C     5.435121     1.506855     1.421852
 H     5.933429     1.202940     2.346456
 C     6.043305     2.455604     0.590996
 C     7.389123     3.025940     0.931998
 H     7.585728     3.957510     0.382542
 H     8.192936     2.315392     0.674854
 H     7.477573     3.239300     2.007818
 C    -3.599103     0.839563    -1.574774
 C    -3.145955     2.084018    -2.015282
 H    -2.177348     2.153748    -2.512750
 C    -4.835664     0.720786    -0.943560
 H    -5.184873    -0.258379    -0.616200
 C    -3.911148     3.222582    -1.790094
 H    -3.568826     4.209226    -2.105902
 C    -5.607291     1.859084    -0.720988
 H    -6.575139     1.796773    -0.220432
 C    -5.130517     3.095939    -1.135109
 F    -5.860745     4.188034    -0.902143
 C    -3.653352    -2.340493     0.116285
 C    -4.565024    -2.857850    -0.801317
 H    -4.210658    -3.148975    -1.791484
 C    -4.078026    -1.942530     1.382634
 H    -3.359019    -1.530151     2.088398
 C    -5.907678    -2.967383    -0.450780
 H    -6.618945    -3.364802    -1.179973
 C    -5.425350    -2.057832     1.716033
 H    -5.753663    -1.736348     2.708293
 C    -6.364854    -2.567637     0.811467
 C    -7.809802    -2.711065     1.192276
 H    -8.470201    -2.596266     0.320457
 H    -8.104246    -1.966041     1.945436
 H    -8.007795    -3.707004     1.622847
 C    -1.733019     1.371888     0.744123
 C    -2.719129     2.060385     1.449407
 H    -3.588492     1.509733     1.811544
 C    -0.608414     2.044796     0.275371
 H     0.185485     1.504540    -0.237257
 C    -2.590745     3.428563     1.652172
 H    -3.377432     3.961497     2.193616
 C    -0.499065     3.418565     0.485663
 H     0.387754     3.936568     0.110069
 C    -1.484665     4.139378     1.165166
 C    -1.378747     5.624098     1.359741
 H    -2.123457     6.158787     0.747229
 H    -0.384818     5.997100     1.075133
 H    -1.560608     5.908236     2.407808
