  98
scf done:    -4032.428509
 C    -1.036141     1.795663     3.683823
 H    -1.310169     2.855638     3.639173
 H    -1.837550     1.151601     4.059372
 C     0.315276     1.434127     3.921741
 H     1.065931     2.220589     4.061864
 H     0.537564     0.514237     4.472146
 H    -0.626132    -0.231744     2.507939
Co    -0.183518     1.086077     2.009191
 O    -1.872293    -0.991151     0.402924
 C    -3.476124     1.097548     1.342189
 C    -1.738165     1.288946    -1.037225
 O     1.563936     0.250136    -0.477591
 C     3.046043     0.214222     1.926207
 C     1.157387    -1.918350     1.141193
 P     1.373485    -0.071359     1.164357
 P    -1.787694     0.661706     0.705539
 C     0.440573     2.647895     1.485712
 O     0.941220     3.655501     1.254512
 C    -2.899769    -1.758700    -0.064441
 C    -3.396794    -2.755653     0.773879
 H    -2.969934    -2.858561     1.773515
 C    -3.404809    -1.633787    -1.360661
 H    -2.996779    -0.883930    -2.037507
 C    -4.425240    -3.585559     0.336017
 H    -4.810670    -4.358188     1.007195
 C    -4.440295    -2.461445    -1.778457
 H    -4.841938    -2.336890    -2.787771
 C    -4.979672    -3.444508    -0.939766
 C    -6.126820    -4.297242    -1.396607
 H    -6.297154    -5.144059    -0.716908
 H    -5.954176    -4.701194    -2.405920
 H    -7.060104    -3.710833    -1.439206
 H    -3.372833     2.172934     1.563388
 H    -3.522025     0.600524     2.323057
 C    -4.708586     0.811355     0.535800
 C    -5.550985    -0.249815     0.890199
 H    -5.306045    -0.856289     1.764567
 C    -5.060338     1.587930    -0.576889
 H    -4.451458     2.451077    -0.855359
 C    -6.678441    -0.556657     0.135541
 H    -7.310484    -1.398329     0.428387
 C    -6.188591     1.282926    -1.336161
 H    -6.439407     1.901032    -2.201658
 C    -6.997596     0.203028    -0.989196
 H    -7.880569    -0.038044    -1.585742
 H    -2.730523     1.169806    -1.498935
 H    -1.046510     0.590421    -1.531106
 C    -1.221406     2.687550    -1.188780
 C    -0.026226     2.912275    -1.881680
 H     0.512606     2.061940    -2.304924
 C    -1.886419     3.791623    -0.638548
 H    -2.815832     3.650140    -0.081990
 C     0.490403     4.197337    -2.022159
 H     1.430741     4.342808    -2.559383
 C    -1.371545     5.078144    -0.776461
 H    -1.902454     5.923574    -0.332505
 C    -0.179418     5.285923    -1.467677
 H     0.228689     6.294218    -1.568339
 C     2.676513     0.630873    -1.164044
 C     3.236261    -0.238971    -2.101693
 H     2.795603    -1.226030    -2.241045
 C     3.225537     1.902553    -0.983495
 H     2.759459     2.598068    -0.282900
 C     4.357292     0.156008    -2.823581
 H     4.792999    -0.540929    -3.545208
 C     4.355629     2.277299    -1.708541
 H     4.783720     3.270741    -1.547995
 C     4.947084     1.413656    -2.637055
 C     6.148950     1.830160    -3.434722
 H     6.851139     0.994233    -3.571640
 H     6.690753     2.653595    -2.947913
 H     5.857949     2.176597    -4.440623
 H     2.779472     0.333918     2.987662
 H     3.358875     1.211387     1.580433
 C     4.144657    -0.792862     1.776995
 C     5.068756    -0.733121     0.726183
 H     5.009071     0.076575    -0.002378
 C     4.272430    -1.826823     2.715348
 H     3.582048    -1.870298     3.562918
 C     6.063678    -1.698906     0.598779
 H     6.767708    -1.635888    -0.234408
 C     5.269142    -2.792804     2.591381
 H     5.347584    -3.590388     3.334063
 C     6.164521    -2.737606     1.523992
 H     6.945368    -3.494729     1.420818
 H     0.079683    -2.048515     1.304108
 H     1.684243    -2.304842     2.026945
 C     1.577253    -2.629957    -0.109057
 C     2.820404    -3.259898    -0.228238
 H     3.517177    -3.246683     0.611097
 C     0.699472    -2.667331    -1.201996
 H    -0.275007    -2.183042    -1.112870
 C     3.181932    -3.901438    -1.412129
 H     4.159909    -4.383581    -1.483885
 C     1.058348    -3.309805    -2.383560
 H     0.358170    -3.329568    -3.222328
 C     2.305379    -3.927075    -2.495601
 H     2.589245    -4.430657    -3.422899
