  80
scf done:    -5112.435149
 C    -0.060454     3.199465    -1.865791
 H     0.293932     4.065803    -1.297633
 H     0.581334     2.929518    -2.709174
 C    -1.430834     2.880784    -1.895265
 H    -2.145389     3.519694    -1.365476
 H    -1.854618     2.356379    -2.756835
 H    -0.207070     0.780279    -1.912501
Co    -0.428602     1.595846    -0.685131
 O     2.236853    -0.077524    -1.208414
 C     2.783704     2.454339    -0.423608
 C     1.983911     0.482612     1.466225
 O    -2.169885    -0.577345     1.020014
 C    -3.103445    -0.292075    -1.516075
 C    -0.741888    -1.749131    -0.866844
 P    -1.572204    -0.154627    -0.528908
 P     1.578216     1.102672    -0.201021
 C    -0.820662     2.455280     0.787127
 O    -1.081263     3.008036     1.760569
 C     3.242430    -0.926044    -0.841159
 C     2.941984    -2.071848    -0.100942
 H     1.909861    -2.256166     0.199030
 C     4.558902    -0.670319    -1.225794
 H     4.787600     0.227046    -1.801646
 C     3.950976    -2.956833     0.258612
 H     3.722980    -3.852985     0.837484
 C     5.574056    -1.554551    -0.867742
 H     6.607029    -1.364150    -1.163134
 C     5.266232    -2.691715    -0.123312
Cl     6.529098    -3.788095     0.330093
 C     2.986509     3.403374     0.586184
 H     2.509104     3.275790     1.561355
 C     3.385334     2.651696    -1.671868
 H     3.207655     1.930749    -2.473182
 C     3.795615     4.514058     0.366024
 H     3.969513     5.259149     1.144369
 C     4.200756     3.755505    -1.903516
 H     4.682376     3.920884    -2.868956
 C     4.396682     4.672784    -0.877654
 F     5.174545     5.729849    -1.091988
 C     3.300009     0.451904     1.954137
 H     4.113201     0.873486     1.359649
 C     0.958799    -0.070507     2.243435
 H    -0.072252    -0.059737     1.883228
 C     3.589149    -0.122631     3.185089
 H     4.607556    -0.161754     3.575087
 C     1.234857    -0.648243     3.479246
 H     0.445479    -1.080560     4.096435
 C     2.548593    -0.669090     3.930728
 F     2.820690    -1.222140     5.107016
 C    -3.452132    -0.347032     1.422268
 C    -4.447644    -1.289470     1.152705
 H    -4.188792    -2.198271     0.607268
 C    -3.768732     0.820355     2.118652
 H    -2.984286     1.546560     2.334903
 C    -5.757462    -1.060113     1.558329
 H    -6.542454    -1.786997     1.344324
 C    -5.078659     1.052964     2.529641
 H    -5.336460     1.963402     3.072977
 C    -6.068878     0.115551     2.241218
Cl    -7.702269     0.410548     2.739048
 C    -3.474289    -1.455913    -2.199225
 H    -2.804561    -2.318296    -2.214286
 C    -3.982396     0.799711    -1.504058
 H    -3.698480     1.710193    -0.972942
 C    -4.698148    -1.532241    -2.858214
 H    -5.001663    -2.428651    -3.401894
 C    -5.215061     0.730310    -2.141370
 H    -5.916430     1.566127    -2.127952
 C    -5.555076    -0.438763    -2.813502
 F    -6.728598    -0.511538    -3.432155
 C    -0.016343    -1.912002    -2.055141
 H     0.089040    -1.072795    -2.745448
 C    -0.833701    -2.826174     0.022899
 H    -1.389801    -2.704120     0.953236
 C     0.587813    -3.125586    -2.361319
 H     1.159861    -3.263530    -3.280113
 C    -0.219235    -4.043554    -0.265732
 H    -0.275788    -4.889418     0.421783
 C     0.480052    -4.178157    -1.458434
 F     1.069353    -5.335657    -1.738535
