  86
scf done:    -3724.010539
 C     2.015329    -1.659090     2.840748
 H     2.065395    -2.686693     2.468648
 H     2.982411    -1.247169     3.145640
 C     0.825005    -1.170900     3.413097
 H    -0.060543    -1.809644     3.474588
 H     0.871052    -0.389206     4.178504
 H     0.330267    -1.680607     1.089701
Co     1.038873    -0.455688     1.531073
 O    -1.244791    -0.371272    -0.552732
 O    -2.044089    -0.965420     1.776268
 O    -1.692464     1.412221     1.220178
 O     1.874256    -0.116913    -1.599393
 O     3.791651    -0.656848     0.018433
 O     2.217458    -2.390776    -0.772098
 P     2.199672    -0.891253    -0.145150
 P    -0.930606    -0.031560     1.052517
 C     1.820729     1.043317     1.999926
 O     2.369589     1.995536     2.330654
 C    -2.495322    -0.567227    -1.067264
 C    -2.920914    -1.868836    -1.334666
 H    -2.262704    -2.701334    -1.079795
 C    -3.330920     0.509625    -1.362054
 H    -2.989315     1.520425    -1.141280
 C    -4.175072    -2.086525    -1.896803
 H    -4.499082    -3.111422    -2.098872
 C    -4.586673     0.274986    -1.917040
 H    -5.237434     1.125546    -2.138886
 C    -5.033213    -1.021418    -2.197882
 C    -6.374266    -1.262879    -2.828415
 H    -7.075757    -0.444868    -2.609880
 H    -6.823983    -2.201680    -2.472907
 H    -6.289714    -1.337680    -3.925665
 C    -3.330682    -0.560697     2.268739
 H    -3.693299     0.281642     1.659975
 C    -3.186618    -0.112870     3.709435
 H    -2.493800     0.736990     3.779877
 H    -2.795275    -0.934540     4.328964
 H    -4.159742     0.199236     4.117877
 C    -4.259557    -1.742926     2.098752
 H    -4.341840    -2.017768     1.038128
 H    -3.881069    -2.611513     2.659267
 H    -5.263482    -1.495399     2.474801
 C    -0.985082     2.655152     1.276545
 H    -0.003746     2.529120     0.786908
 C    -0.790248     3.048644     2.727368
 H    -0.280367     2.249168     3.282632
 H    -1.764223     3.235120     3.206147
 H    -0.180199     3.960623     2.805038
 C    -1.790044     3.674046     0.498609
 H    -1.872992     3.378700    -0.555896
 H    -2.800422     3.770197     0.925340
 H    -1.298605     4.657172     0.536397
 C     1.523444     1.197752    -1.668849
 C     0.403601     1.546846    -2.425755
 H    -0.178949     0.754496    -2.897095
 C     2.265387     2.193351    -1.032968
 H     3.140845     1.920727    -0.441567
 C     0.046594     2.883484    -2.555121
 H    -0.830180     3.142961    -3.155886
 C     1.880886     3.528204    -1.155070
 H     2.465244     4.295882    -0.640449
 C     0.773972     3.901852    -1.922091
 C     0.385746     5.342804    -2.085316
 H     0.744754     5.745823    -3.047064
 H     0.813167     5.967949    -1.288156
 H    -0.707209     5.470751    -2.069350
 C     4.741556    -1.013678    -1.003867
 H     4.190451    -1.194980    -1.941447
 C     5.445511    -2.285222    -0.579098
 H     4.713125    -3.093610    -0.451236
 H     5.971044    -2.130224     0.375732
 H     6.181856    -2.591888    -1.337435
 C     5.673485     0.164428    -1.188394
 H     5.119822     1.052127    -1.526161
 H     6.177064     0.406341    -0.239892
 H     6.441430    -0.068063    -1.941236
 C     1.001240    -2.951889    -1.293868
 H     0.182252    -2.233682    -1.117847
 C     0.713564    -4.229824    -0.536133
 H     0.576141    -4.018031     0.534266
 H     1.548226    -4.939044    -0.647318
 H    -0.201798    -4.708730    -0.916069
 C     1.171017    -3.144561    -2.785782
 H     1.391197    -2.180529    -3.264766
 H     1.999573    -3.839337    -2.993928
 H     0.251253    -3.555505    -3.228999
