  76
scf done:    -3542.998056
 C    -0.230006    -4.011610    -1.110808
 H    -0.475178    -4.770334    -0.359394
 H    -1.007420    -3.876253    -1.869419
 C     1.124603    -3.787643    -1.458950
 H     1.907352    -4.378406    -0.970210
 H     1.376911    -3.479869    -2.478341
 H    -0.037465    -1.667276    -1.624538
Co     0.409781    -2.270375    -0.342827
 O    -1.236228     0.366091    -0.337420
 C    -2.909544    -1.824162    -0.655447
 C    -1.856370    -1.023882     1.913340
 O     1.607043     0.250606     0.999294
 C     3.627894    -1.062847    -0.218836
 C     1.754773     0.473414    -1.790971
 P     1.834710    -0.702801    -0.383427
 P    -1.362114    -1.253958     0.159939
 C     0.943260    -2.900078     1.204197
 O     1.329608    -3.302595     2.209480
 C    -2.256248     1.249574    -0.499267
 C    -2.685237     2.049585     0.564579
 H    -2.206937     1.943073     1.539547
 C    -2.831707     1.410378    -1.763653
 H    -2.463932     0.800909    -2.591042
 C    -3.710330     2.973658     0.376508
 H    -4.063558     3.605510     1.193450
 C    -3.857238     2.330751    -1.956454
 H    -4.324515     2.467811    -2.933315
 C    -4.290667     3.097048    -0.880068
 F    -5.273889     3.977752    -1.061069
 H    -2.772009    -1.590380    -1.725366
 H    -2.850537    -2.924345    -0.599296
 C    -4.268313    -1.345354    -0.154519
 H    -4.303184    -0.246327    -0.115232
 H    -4.420675    -1.690329     0.881296
 C    -5.405417    -1.852344    -1.028535
 H    -5.310277    -1.474832    -2.059247
 H    -5.413813    -2.952987    -1.079457
 H    -6.383645    -1.526486    -0.643931
 H    -1.002424    -0.505950     2.382327
 H    -2.724993    -0.347111     1.967400
 C    -2.154487    -2.330619     2.640656
 H    -1.285061    -3.001463     2.566585
 H    -2.984264    -2.857397     2.138801
 C    -2.503501    -2.112396     4.104927
 H    -1.674353    -1.622086     4.639014
 H    -3.393560    -1.472213     4.214658
 H    -2.711421    -3.065483     4.614147
 C     1.979235     1.550326     1.147549
 C     1.107329     2.569328     0.751684
 H     0.146866     2.293105     0.316764
 C     3.205450     1.873944     1.734653
 H     3.863841     1.069927     2.067938
 C     1.472375     3.903031     0.907078
 H     0.809023     4.713296     0.598852
 C     3.574851     3.207661     1.894063
 H     4.528300     3.484546     2.347670
 C     2.706918     4.206820     1.470078
 F     3.060844     5.484071     1.617652
 H     4.175613    -0.111336    -0.110156
 H     3.733660    -1.607219     0.734909
 C     4.197532    -1.887731    -1.366362
 H     4.049126    -1.352772    -2.320343
 H     3.621305    -2.821179    -1.454143
 C     5.674790    -2.199351    -1.184680
 H     6.275596    -1.277457    -1.126924
 H     5.849442    -2.765740    -0.256059
 H     6.064403    -2.800368    -2.020227
 H     1.638417    -0.185220    -2.668626
 H     0.775031     0.966465    -1.677302
 C     2.875585     1.479924    -2.024448
 H     3.808851     0.945076    -2.266964
 H     3.082506     2.050733    -1.107020
 C     2.536530     2.447238    -3.148436
 H     2.336554     1.914205    -4.091947
 H     1.637003     3.034046    -2.902839
 H     3.358039     3.156422    -3.330703
