  98
scf done:    -4032.427644
 C    -0.784148    -2.892429    -1.986330
 H    -0.583795    -2.823563    -3.060587
 H    -0.118513    -3.571817    -1.448292
 C    -2.081497    -2.655187    -1.502899
 H    -2.888372    -2.412207    -2.202211
 H    -2.419314    -3.152434    -0.588861
 H    -0.531224    -1.817154     0.181950
Co    -0.853333    -1.079522    -1.064190
 O     1.419559    -0.485201     1.030296
 C     2.129228    -2.331340    -0.871709
 C     2.257395     0.536496    -1.360104
 O    -1.748886     1.097146     1.226322
 C    -3.844524     0.507900    -0.402346
 C    -2.906970    -1.279022     1.579085
 P    -2.263078    -0.179824     0.258447
 P     1.201149    -0.775772    -0.615540
 C    -1.046575    -0.138273    -2.531114
 O    -1.138460     0.443955    -3.518612
 C     2.500257     0.033291     1.687323
 C     3.180164    -0.767460     2.606696
 H     2.862414    -1.799595     2.756355
 C     2.891570     1.363849     1.517494
 H     2.346833     2.000860     0.823563
 C     4.255258    -0.249013     3.324165
 H     4.778545    -0.892610     4.036746
 C     3.973328     1.863154     2.234975
 H     4.273133     2.903463     2.078624
 C     4.680687     1.071459     3.147725
 C     5.829957     1.634513     3.932637
 H     5.473062     2.241120     4.781843
 H     6.460512     2.287909     3.311065
 H     6.466712     0.837823     4.343027
 C     2.277671    -3.199228     0.213904
 H     1.900106    -2.891699     1.189963
 C     2.526217    -2.745522    -2.160819
 C     2.325248    -1.895234    -3.381653
 H     3.084028    -1.100572    -3.458911
 H     1.346503    -1.394016    -3.367208
 H     2.383643    -2.507089    -4.292514
 C     2.871651    -4.448468     0.060192
 H     2.983045    -5.110341     0.922183
 C     3.121153    -4.005189    -2.292417
 H     3.434040    -4.334379    -3.287299
 C     3.308194    -4.848359    -1.199881
 H     3.775035    -5.826267    -1.339190
 C     1.540513     1.638612    -1.840361
 H     0.454106     1.637052    -1.758002
 C     3.674608     0.559744    -1.397765
 C     4.571078    -0.524433    -0.871127
 H     4.651779    -1.366964    -1.574898
 H     4.218127    -0.940598     0.079583
 H     5.581153    -0.124073    -0.708259
 C     2.175568     2.749856    -2.383772
 H     1.581985     3.591932    -2.744695
 C     4.290227     1.687274    -1.956700
 H     5.382649     1.717274    -1.989317
 C     3.564258     2.767805    -2.450277
 H     4.089039     3.626991    -2.875666
 C    -1.150902     2.215715     0.743566
 C    -0.165730     2.807350     1.538567
 H     0.108096     2.324967     2.478151
 C    -1.507167     2.816963    -0.466699
 H    -2.288549     2.381215    -1.090085
 C     0.458563     3.975597     1.120260
 H     1.233520     4.417790     1.753248
 C    -0.866919     3.988201    -0.871174
 H    -1.156467     4.443581    -1.822492
 C     0.129945     4.586976    -0.097245
 C     0.849782     5.820728    -0.557619
 H     1.881189     5.581987    -0.867662
 H     0.918041     6.572929     0.243220
 H     0.344215     6.285552    -1.416080
 C    -4.154088     0.234765    -1.738993
 H    -3.460853    -0.368367    -2.324295
 C    -4.740132     1.280322     0.376798
 C    -4.505116     1.635902     1.816116
 H    -3.758602     2.439316     1.907260
 H    -4.125038     0.784148     2.395648
 H    -5.439454     1.984559     2.277393
 C    -5.320787     0.709239    -2.331808
 H    -5.535697     0.478962    -3.377549
 C    -5.905319     1.749249    -0.241967
 H    -6.603298     2.347636     0.349997
 C    -6.200167     1.476125    -1.575255
 H    -7.121402     1.861859    -2.018780
 C    -4.096931    -1.961653     1.287174
 H    -4.624067    -1.747608     0.354831
 C    -2.222224    -1.554612     2.782859
 C    -0.944179    -0.879073     3.179013
 H    -1.135376     0.151711     3.512978
 H    -0.235866    -0.808615     2.343158
 H    -0.463249    -1.423459     4.003897
 C    -4.627466    -2.902744     2.163219
 H    -5.555443    -3.420403     1.910369
 C    -2.783059    -2.499794     3.652137
 H    -2.262756    -2.712942     4.590044
 C    -3.966110    -3.170223     3.358007
 H    -4.367994    -3.902985     4.061987
