  76
scf done:    -3542.988304
 C    -0.440517    -0.487340    -3.228624
 H    -1.222779     0.110865    -3.704240
 H     0.439174    -0.635315    -3.863184
 C    -0.785452    -1.464671    -2.272371
 H    -1.830238    -1.646679    -2.010050
 H    -0.176801    -2.371205    -2.195168
 H    -0.091968    -0.173506     0.084707
Co     0.027322     0.158050    -1.364256
 O     1.263990    -2.466949    -0.009835
 C     2.732884    -1.793350    -2.069344
 C     2.773797    -0.231649     0.538679
 O    -1.465941     1.757529     1.002822
 C    -2.443929     2.584431    -1.297935
 C    -3.081185    -0.120156    -0.066550
 P    -1.714226     1.056019    -0.521130
 P     1.687183    -1.005169    -0.755625
 C     0.815719     1.608923    -1.883075
 O     1.304614     2.576603    -2.286293
 C     0.124410    -2.661425     0.703188
 C    -0.798665    -3.608578     0.253673
 H    -0.582261    -4.162067    -0.661047
 C    -0.133079    -1.956841     1.882857
 H     0.590997    -1.226476     2.243912
 C    -1.980844    -3.830652     0.954649
 H    -2.717517    -4.559078     0.611179
 C    -1.313398    -2.173863     2.588954
 H    -1.536881    -1.628490     3.507706
 C    -2.230950    -3.098799     2.109198
 F    -3.378061    -3.283301     2.766614
 H     1.959244    -2.382507    -2.595194
 C     3.284534    -0.771737    -3.059183
 H     3.645514    -1.286564    -3.963343
 H     2.520708    -0.043352    -3.365546
 H     4.133104    -0.212628    -2.640688
 C     3.800405    -2.759131    -1.572019
 H     3.396045    -3.464928    -0.833765
 H     4.203344    -3.339911    -2.417479
 H     4.645893    -2.222347    -1.115959
 H     2.020429     0.324940     1.120322
 C     3.486662    -1.194593     1.480574
 H     3.893426    -0.627861     2.333677
 H     2.815155    -1.969675     1.873558
 H     4.328194    -1.703876     0.990495
 C     3.735493     0.796691    -0.048315
 H     3.241534     1.487897    -0.745258
 H     4.162781     1.399865     0.767617
 H     4.573323     0.312398    -0.572341
 C    -0.267922     2.008938     1.583725
 C     0.025595     1.391469     2.802425
 H    -0.713514     0.716880     3.236058
 C     0.650622     2.906594     1.031098
 H     0.420348     3.414764     0.094979
 C     1.238274     1.630389     3.445213
 H     1.487109     1.147907     4.392193
 C     1.865522     3.148220     1.664978
 H     2.598773     3.833367     1.236327
 C     2.152728     2.495135     2.856882
 F     3.336014     2.695403     3.442343
 H    -1.585003     3.271101    -1.179912
 C    -2.695348     2.445346    -2.793805
 H    -2.952592     3.427281    -3.221441
 H    -1.802098     2.075990    -3.315900
 H    -3.529399     1.763683    -3.014779
 C    -3.624359     3.186735    -0.547307
 H    -3.413237     3.275762     0.527255
 H    -3.844066     4.193878    -0.937120
 H    -4.536628     2.584469    -0.673132
 H    -2.499980    -1.045479     0.084658
 C    -3.830022     0.172472     1.226973
 H    -4.452883    -0.698089     1.488888
 H    -3.139470     0.356323     2.059067
 H    -4.489487     1.047682     1.137344
 C    -4.035447    -0.350033    -1.236329
 H    -3.513020    -0.512069    -2.190582
 H    -4.650159    -1.242768    -1.041285
 H    -4.723203     0.498182    -1.369704
