  90
scf done:    -4176.106515
 C     0.179215    -3.127157    -1.563724
 H     0.752264    -3.264382    -2.486017
 H     0.619014    -3.601113    -0.680650
 C    -1.208317    -2.910912    -1.617892
 H    -1.727145    -2.877799    -2.580357
 H    -1.842332    -3.216985    -0.781499
 H    -0.389976    -1.570074     0.210658
Co    -0.242167    -1.172777    -1.204496
 O     2.465412    -1.548232     0.520185
 O     2.779812    -0.550403    -1.721255
 O     1.733462     0.868525     0.174391
 O    -1.845054     1.546633    -1.258238
 O    -3.235461    -0.367906    -0.274077
 O    -1.476253     0.669807     1.073204
 P    -1.662511     0.112528    -0.457557
 P     1.633844    -0.603394    -0.559801
 C    -0.153243    -0.585228    -2.868966
 O    -0.108039    -0.183741    -3.938615
 C     1.915200    -2.166043     1.610681
 C     0.982896    -1.530500     2.432063
 H     0.637119    -0.522774     2.192660
 C     2.368949    -3.466841     1.880412
 C     3.368933    -4.112907     0.971937
 H     3.030472    -4.086882    -0.075269
 H     4.333838    -3.581416     0.998622
 H     3.545508    -5.158236     1.258708
 C     0.491553    -2.197519     3.554161
 H    -0.237310    -1.697385     4.195515
 C     1.857175    -4.108210     3.010512
 H     2.197467    -5.122498     3.236270
 C     0.928010    -3.486660     3.844981
 H     0.546439    -4.012319     4.723001
 C     4.047043    -0.018578    -1.730962
 C     5.001058    -0.342521    -0.767210
 H     4.740941    -1.030118     0.036653
 C     4.353501     0.848588    -2.778199
 H     3.582975     1.064905    -3.520698
 C     6.258438     0.252079    -0.836292
 H     7.000816     0.018533    -0.069736
 C     5.619043     1.425147    -2.842575
 H     5.858467     2.109390    -3.660118
 C     6.572589     1.137523    -1.866670
 H     7.561452     1.598795    -1.911589
 C     2.835455     1.497885     0.711624
 C     3.374134     2.582977     0.022317
 H     2.928796     2.879085    -0.928361
 C     3.368705     1.091977     1.933092
 H     2.923071     0.256165     2.472640
 C     4.483767     3.241756     0.541596
 H     4.917481     4.079691    -0.008661
 C     4.478649     1.762095     2.444667
 H     4.903038     1.441329     3.399005
 C     5.044140     2.830246     1.751117
 H     5.917922     3.346304     2.154745
 C    -2.508915     2.628874    -0.720902
 C    -3.900407     2.665295    -0.708112
 H    -4.462088     1.824988    -1.117963
 C    -1.733746     3.680728    -0.210189
 C    -0.240653     3.592360    -0.234079
 H     0.111748     2.737491     0.361981
 H     0.126919     3.425293    -1.258539
 H     0.218369     4.508936     0.159870
 C    -4.552318     3.769468    -0.162805
 H    -5.643965     3.798843    -0.145377
 C    -2.415017     4.778373     0.324707
 H    -1.832508     5.610780     0.728799
 C    -3.808802     4.826556     0.356650
 H    -4.313541     5.695344     0.785278
 C    -3.925299    -1.058593    -1.230284
 C    -4.754856    -2.093719    -0.799782
 H    -4.807103    -2.311633     0.268519
 C    -3.831254    -0.737549    -2.586002
 H    -3.193368     0.086908    -2.909861
 C    -5.485334    -2.820661    -1.734850
 H    -6.133733    -3.632861    -1.397681
 C    -4.560837    -1.480998    -3.512745
 H    -4.481579    -1.235509    -4.574416
 C    -5.386345    -2.523022    -3.094895
 H    -5.955473    -3.100299    -3.826552
 C    -2.341738     0.545024     2.133726
 C    -2.601745    -0.708930     2.685451
 H    -2.149035    -1.596174     2.239148
 C    -2.903082     1.697878     2.675669
 H    -2.691986     2.662527     2.210777
 C    -3.433562    -0.803402     3.798591
 H    -3.639799    -1.784624     4.233237
 C    -3.730036     1.589879     3.792119
 H    -4.172227     2.492888     4.219522
 C    -3.998590     0.343629     4.356807
 H    -4.649627     0.265051     5.230244
