  96
scf done:    -5173.605168
 C    -0.730928    -3.043065    -2.914189
 H    -1.031325    -3.855785    -2.246809
 H    -1.484818    -2.761697    -3.655932
 C     0.629636    -2.800961    -3.162858
 H     1.398722    -3.419935    -2.693406
 H     0.940247    -2.338329    -4.104544
 H     0.296563    -2.412528    -0.783101
Co    -0.081839    -1.440207    -1.834865
 O     1.696386    -0.934067     0.700698
 O     3.033666    -1.437451    -1.423634
 O     1.990037     0.865448    -1.097658
 O    -3.207564    -1.044001    -1.429802
 O    -2.102225    -2.644781     0.211833
 O    -1.905702    -0.230670     0.626034
 P    -1.767479    -1.291015    -0.642863
 P     1.624871    -0.742154    -0.936814
 C    -0.409230    -0.173654    -3.011940
 O    -0.614141     0.667730    -3.762246
 C     2.193887    -0.065247     1.637404
 C     3.432578    -0.309673     2.229429
 H     4.014151    -1.181520     1.931032
 C     1.429874     1.033962     2.028890
 H     0.455853     1.203579     1.570522
 C     3.923064     0.568459     3.191274
 H     4.895026     0.392509     3.654416
 C     1.919771     1.915509     2.987340
 H     1.333247     2.784275     3.289807
 C     3.170796     1.683483     3.558552
Cl     3.793289     2.787459     4.741418
 C     4.055099    -1.917219    -0.641474
 C     3.876393    -3.092226     0.087067
 H     2.913710    -3.605145     0.048615
 C     5.272542    -1.242106    -0.602301
 H     5.397107    -0.322164    -1.174584
 C     4.916869    -3.575063     0.875340
 H     4.764884    -4.489295     1.455540
 C     6.304081    -1.743018     0.187741
 H     7.253682    -1.202092     0.222771
 C     6.148561    -2.910820     0.944215
 C     7.274001    -3.453477     1.776373
 H     7.861504    -4.195843     1.210517
 H     6.901465    -3.955316     2.681330
 H     7.965973    -2.657475     2.086908
 C     3.223136     1.423023    -1.340704
 C     3.786587     1.321462    -2.611745
 H     3.250671     0.778634    -3.392075
 C     3.889456     2.111993    -0.330732
 H     3.436458     2.191937     0.657415
 C     5.032379     1.890329    -2.858614
 H     5.473109     1.795173    -3.854753
 C     5.133880     2.677837    -0.595634
 H     5.654218     3.208122     0.206583
 C     5.732443     2.575172    -1.856843
 C     7.064032     3.208718    -2.138073
 H     6.940077     4.235937    -2.520136
 H     7.627242     2.645370    -2.896262
 H     7.680529     3.271174    -1.229740
 C    -4.102262    -0.023264    -1.229211
 C    -3.936464     1.166415    -1.939644
 H    -3.111620     1.255717    -2.648471
 C    -5.159515    -0.170173    -0.333949
 H    -5.289087    -1.111783     0.200434
 C    -4.783705     2.240957    -1.701670
 H    -4.639391     3.188537    -2.222014
 C    -6.017304     0.902294    -0.101267
 H    -6.834217     0.811687     0.616305
 C    -5.807990     2.108396    -0.765360
Cl    -6.808519     3.478409    -0.400362
 C    -3.277834    -2.839346     0.898100
 C    -4.293573    -3.580088     0.298995
 H    -4.140536    -3.970468    -0.708375
 C    -3.447336    -2.314688     2.177543
 H    -2.639615    -1.735093     2.624858
 C    -5.488884    -3.784402     0.983231
 H    -6.286226    -4.359352     0.504487
 C    -4.650435    -2.524803     2.846056
 H    -4.783075    -2.104979     3.847098
 C    -5.692770    -3.258553     2.265211
 C    -6.974605    -3.503001     3.007341
 H    -7.823977    -3.618626     2.318615
 H    -7.204033    -2.679264     3.698746
 H    -6.913032    -4.425902     3.608103
 C    -2.010338     1.137934     0.551309
 C    -2.994073     1.739580     1.336632
 H    -3.629098     1.106730     1.957899
 C    -1.176782     1.919815    -0.244945
 H    -0.377134     1.464915    -0.827973
 C    -3.181421     3.112857     1.272674
 H    -3.982823     3.568391     1.860745
 C    -1.379463     3.299445    -0.294381
 H    -0.729760     3.901308    -0.935414
 C    -2.391610     3.919905     0.441176
 C    -2.650857     5.394991     0.345317
 H    -3.683541     5.587473     0.012351
 H    -1.968278     5.879891    -0.366390
 H    -2.528931     5.890832     1.321587
