 102
scf done:    -4333.251663
 C    -1.358636    -0.027569    -3.354335
 H    -2.112113    -0.781025    -3.606711
 H    -1.719142     1.003046    -3.415362
 C     0.002075    -0.319046    -3.565025
 H     0.300249    -1.296363    -3.957740
 H     0.702017     0.490453    -3.791396
 H    -0.139685     1.069368    -1.607110
Co    -0.436602    -0.375431    -1.584976
 O    -1.039327     1.862227     0.509456
 O    -3.120358     1.133008    -0.587552
 O    -2.111627    -0.275559     1.230913
 O     2.365047    -1.788357    -1.314945
 O     2.597139     0.659509    -1.558527
 O     1.759180    -0.266500     0.686655
 P     1.523711    -0.439447    -0.937702
 P    -1.643479     0.501071    -0.156426
 C    -0.865111    -2.093950    -1.522776
 O    -1.140101    -3.203325    -1.560793
 C    -1.751876     2.739330     1.298094
 C    -1.916899     2.472494     2.653639
 H    -1.520906     1.540071     3.056961
 C    -2.232263     3.915470     0.704448
 C    -2.038041     4.159805    -0.759576
 H    -0.995677     3.975413    -1.060567
 H    -2.664924     3.471675    -1.347981
 H    -2.306353     5.191027    -1.026546
 C    -2.584312     3.395447     3.456281
 H    -2.717838     3.191838     4.521162
 C    -2.891755     4.825420     1.536207
 H    -3.272239     5.753191     1.100245
 C    -3.072352     4.574043     2.895927
 H    -3.592759     5.304616     3.519464
 C    -4.253222     0.362582    -0.533168
 C    -4.422399    -0.708013    -1.405788
 H    -3.641382    -0.916170    -2.138008
 C    -5.217109     0.664604     0.428380
 H    -5.043549     1.501468     1.107096
 C    -5.556572    -1.523670    -1.318266
 C    -5.694204    -2.710081    -2.226727
 H    -5.670021    -2.407686    -3.285427
 H    -4.861631    -3.415388    -2.072817
 H    -6.634981    -3.249316    -2.049090
 C    -6.357359    -0.129050     0.502951
 H    -7.121991     0.093776     1.250954
 C    -6.524367    -1.217569    -0.356171
 H    -7.418449    -1.841184    -0.275224
 C    -2.053972    -1.634948     1.411580
 C    -3.237101    -2.368734     1.353227
 H    -4.173307    -1.844509     1.156209
 C    -0.835055    -2.257005     1.670711
 H     0.076846    -1.659815     1.693489
 C    -3.219739    -3.753397     1.533829
 C    -4.495946    -4.541769     1.474453
 H    -4.873052    -4.759374     2.487639
 H    -5.281663    -3.987385     0.941529
 H    -4.347736    -5.507229     0.968202
 C    -0.816498    -3.638128     1.857454
 H     0.132839    -4.141720     2.052702
 C    -1.991533    -4.380366     1.782757
 H    -1.957854    -5.464824     1.916518
 C     3.673440    -2.088875    -1.002038
 C     4.707535    -1.534009    -1.752666
 H     4.458399    -0.850211    -2.564316
 C     3.914484    -2.992205     0.041074
 C     2.780579    -3.590807     0.813580
 H     2.455040    -2.908525     1.615999
 H     1.910968    -3.775237     0.167699
 H     3.082957    -4.535966     1.285379
 C     6.026369    -1.843990    -1.434828
 H     6.841611    -1.405701    -2.015191
 C     5.249572    -3.285028     0.337131
 H     5.464658    -3.979999     1.153182
 C     6.298405    -2.714908    -0.380379
 H     7.330982    -2.962346    -0.123780
 C     2.346395     2.008028    -1.623009
 C     1.933997     2.726550    -0.502858
 H     1.756894     2.208299     0.440072
 C     2.553534     2.645083    -2.845940
 H     2.873928     2.055234    -3.706470
 C     1.724735     4.107583    -0.586736
 C     1.313508     4.878172     0.633622
 H     0.589644     4.314919     1.239804
 H     2.186170     5.086346     1.274600
 H     0.858933     5.842852     0.367728
 C     2.341741     4.017345    -2.933209
 H     2.495700     4.527097    -3.887257
 C     1.929519     4.743156    -1.816091
 H     1.762902     5.820187    -1.898584
 C     2.854944    -0.138296     1.506744
 C     4.097230     0.318671     1.075080
 H     4.245423     0.586242     0.030411
 C     2.646514    -0.473079     2.846721
 H     1.656390    -0.802487     3.166583
 C     5.165062     0.410954     1.975210
 C     6.508884     0.861686     1.482106
 H     6.949579     0.100058     0.818967
 H     6.428017     1.791838     0.899103
 H     7.207081     1.036019     2.312517
 C     3.704667    -0.372681     3.742658
 H     3.548029    -0.635352     4.791590
 C     4.958378     0.058826     3.311733
 H     5.785654     0.128594     4.022299
