 100
scf done:    -3734.559242
 C    -0.154067     0.938355    -3.139917
 H    -0.760891     0.386569    -3.866839
 H    -0.453694     1.983783    -3.024366
 C     1.199507     0.578831    -2.949134
 H     1.618575    -0.251662    -3.528544
 H     1.935683     1.345021    -2.687838
 H     0.277302     1.284648    -0.744236
Co     0.080656    -0.039541    -1.385748
 C    -2.366235     1.948487     0.006474
 C    -3.173415    -0.065854    -1.901396
 C    -2.432677    -0.805475     0.877495
 C     1.258764    -1.861557     1.293304
 C     3.071247    -1.381091    -0.932714
 C     2.400182     0.645401     1.143652
 P     1.648608    -0.604338    -0.011456
 P    -1.890576     0.268031    -0.578174
 C    -0.255176    -1.630503    -2.017756
 O    -0.521864    -2.663711    -2.456641
 H    -3.421564     1.918320     0.322902
 H    -1.782519     2.128611     0.922627
 C    -2.117562     3.081762    -0.975357
 H    -2.660973     2.898170    -1.918491
 H    -1.048394     3.092604    -1.240507
 C    -2.530687     4.431505    -0.408820
 H    -3.603433     4.450644    -0.157512
 H    -1.974586     4.660969     0.514124
 H    -2.339301     5.244759    -1.125214
 H    -3.072839     0.796269    -2.578691
 H    -2.792919    -0.928486    -2.462581
 C    -4.596601    -0.263400    -1.490296
 C    -5.411663     0.844509    -1.224673
 H    -5.001110     1.848183    -1.361003
 C    -5.140447    -1.560761    -1.360380
 C    -4.347776    -2.787234    -1.717652
 H    -3.375695    -2.838895    -1.204090
 H    -4.124785    -2.816698    -2.796957
 H    -4.905831    -3.700283    -1.469502
 C    -6.727743     0.695517    -0.798741
 H    -7.338212     1.577293    -0.591452
 C    -6.466059    -1.693312    -0.930058
 H    -6.887562    -2.696846    -0.825360
 C    -7.256566    -0.583141    -0.640690
 H    -8.286957    -0.718954    -0.304019
 H    -3.012967    -1.632515     0.445155
 H    -1.503463    -1.243846     1.262582
 C    -3.217050    -0.149427     1.976768
 C    -4.615325    -0.201345     1.965928
 H    -5.119678    -0.748343     1.167824
 C    -2.568361     0.545732     3.019369
 C    -1.070513     0.592283     3.115698
 H    -0.593859     0.787483     2.143396
 H    -0.667304    -0.367096     3.482554
 H    -0.740632     1.372553     3.815533
 C    -5.373306     0.434122     2.945138
 H    -6.463660     0.379197     2.904699
 C    -3.343478     1.181590     3.994273
 H    -2.838193     1.725317     4.797531
 C    -4.735106     1.136384     3.963487
 H    -5.316139     1.645480     4.736159
 H     2.171920    -2.048682     1.882686
 H     0.560060    -1.356339     1.979478
 C     0.653634    -3.170007     0.812088
 H     1.336292    -3.663114     0.098623
 H    -0.265336    -2.963933     0.241831
 C     0.339507    -4.120733     1.957161
 H     1.245303    -4.372576     2.531864
 H    -0.380745    -3.670827     2.659642
 H    -0.096397    -5.062249     1.590537
 H     2.657682    -2.350389    -1.259940
 H     3.158041    -0.778892    -1.843346
 C     4.405704    -1.563030    -0.275781
 C     4.578222    -2.526249     0.727874
 H     3.732679    -3.158585     1.008200
 C     5.522598    -0.802377    -0.689876
 C     5.431043     0.189074    -1.813240
 H     4.672681     0.962230    -1.622050
 H     5.164468    -0.305141    -2.761840
 H     6.392393     0.698466    -1.961238
 C     5.807550    -2.720730     1.352924
 H     5.910657    -3.479191     2.132467
 C     6.750637    -1.012636    -0.052731
 H     7.612953    -0.420782    -0.371505
 C     6.901015    -1.951481     0.964652
 H     7.873457    -2.089425     1.443179
 H     1.525394     1.115856     1.623111
 H     2.917841     0.073231     1.923913
 C     3.312265     1.703728     0.589449
 C     2.867375     2.557321    -0.427132
 H     1.850986     2.423964    -0.804205
 C     4.611142     1.876954     1.114190
 C     5.124367     1.047499     2.256240
 H     5.085821    -0.029882     2.037165
 H     4.536869     1.220925     3.172970
 H     6.169856     1.299005     2.479583
 C     3.691974     3.544199    -0.960272
 H     3.321135     4.190707    -1.759167
 C     5.427464     2.871549     0.562654
 H     6.437594     3.000500     0.961159
 C     4.985866     3.696151    -0.468666
 H     5.649203     4.461115    -0.879453
