 104
scf done:    -5029.947462
 C     0.297590    -3.019567    -2.148283
 H    -0.321967    -3.885990    -1.890364
 H    -0.030557    -2.500962    -3.054958
 C     1.670203    -3.019548    -1.812070
 H     2.099822    -3.878359    -1.285250
 H     2.383450    -2.494343    -2.455880
 H     0.859162    -0.712136    -1.632746
Co     0.647237    -1.761878    -0.609605
 O    -0.504865     1.067597    -0.150461
 C    -1.889233    -0.183459    -2.206548
 C    -2.421237    -0.618282     0.636994
 O     2.156353    -0.540384     2.018395
 C     3.851638    -1.720282     0.391799
 C     2.765653     0.936609    -0.164579
 P     2.276002    -0.772585     0.337531
 P    -1.040550    -0.494119    -0.568466
 C     0.335504    -2.935189     0.656351
 O     0.162839    -3.730044     1.466885
 C    -1.183251     2.234681    -0.300814
 C    -0.906121     3.038598    -1.411611
 H    -0.156701     2.704038    -2.132399
 C    -2.105238     2.676426     0.654653
 H    -2.299351     2.073320     1.540309
 C    -1.568493     4.249167    -1.591109
 H    -1.359677     4.874877    -2.460170
 C    -2.769945     3.886503     0.479648
 H    -3.494140     4.230632     1.219788
 C    -2.508039     4.664049    -0.648008
Cl    -3.344658     6.163597    -0.870339
 H    -1.517734     0.801059    -2.530001
 H    -1.451885    -0.918515    -2.891217
 C    -3.389068    -0.211692    -2.238179
 C    -4.113549     0.898875    -1.787674
 H    -3.574165     1.794675    -1.471458
 C    -4.088563    -1.347770    -2.697403
 C    -3.375376    -2.524194    -3.297802
 H    -2.569747    -2.899731    -2.653019
 H    -2.920265    -2.258452    -4.266900
 H    -4.072465    -3.354541    -3.473282
 C    -5.504249     0.884487    -1.732147
 H    -6.043922     1.764646    -1.374459
 C    -5.484621    -1.350823    -2.619921
 H    -6.026316    -2.239821    -2.953108
 C    -6.193857    -0.256613    -2.132203
 H    -7.284473    -0.292137    -2.079236
 H    -1.927904    -0.566144     1.623034
 H    -3.007186     0.304026     0.530400
 C    -3.353854    -1.794992     0.561570
 C    -2.972230    -3.009553    -0.011933
 H    -1.967529    -3.103781    -0.426849
 C    -4.652658    -1.665636     1.099711
 C    -5.096020    -0.391561     1.757254
 H    -5.091475     0.447617     1.042762
 H    -4.438104    -0.109187     2.595282
 H    -6.117740    -0.487301     2.149425
 C    -3.853504    -4.085285    -0.087627
 H    -3.530238    -5.021464    -0.548937
 C    -5.526182    -2.752551     1.012025
 H    -6.535634    -2.650165     1.419766
 C    -5.141267    -3.954106     0.420432
 H    -5.846753    -4.786627     0.364790
 C     1.042764    -0.082935     2.648693
 C     0.211303    -0.983276     3.318750
 H     0.457180    -2.044937     3.307276
 C     0.756774     1.284198     2.690910
 H     1.420108     1.988808     2.188570
 C    -0.927767    -0.530796     3.979588
 H    -1.595283    -1.233959     4.480139
 C    -0.371199     1.744388     3.359536
 H    -0.602517     2.810082     3.386592
 C    -1.223860     0.830582     3.977095
Cl    -2.690807     1.396765     4.714298
 H     3.598167    -2.586472     1.026644
 H     3.965247    -2.114556    -0.625345
 C     5.109564    -1.047624     0.864976
 C     5.196576    -0.563084     2.177342
 H     4.328949    -0.665589     2.830957
 C     6.227873    -0.929900     0.011332
 C     6.213191    -1.460850    -1.392804
 H     5.417913    -0.998975    -1.997081
 H     6.052498    -2.551161    -1.411197
 H     7.168311    -1.257799    -1.895186
 C     6.357367     0.043743     2.649908
 H     6.399534     0.412793     3.677374
 C     7.384503    -0.314984     0.504712
 H     8.250400    -0.221410    -0.156322
 C     7.458544     0.171430     1.807096
 H     8.376671     0.645401     2.162394
 H     1.808822     1.471985    -0.274383
 H     3.287895     1.347242     0.708181
 C     3.615440     1.077300    -1.400385
 C     3.220102     0.499713    -2.613908
 H     2.285052    -0.064054    -2.646702
 C     4.812160     1.825966    -1.356979
 C     5.270191     2.514198    -0.104421
 H     5.418765     1.803662     0.722595
 H     4.538408     3.266609     0.232153
 H     6.225391     3.029728    -0.271016
 C     3.991099     0.625015    -3.767226
 H     3.658165     0.158914    -4.697541
 C     5.575681     1.937409    -2.524549
 H     6.505480     2.511531    -2.488233
 C     5.181869     1.343859    -3.721084
 H     5.802203     1.448842    -4.614321
