  86
scf done:    -3351.344947
 C     0.809549     2.349803     1.475284
 H     0.180235     2.779349     2.260432
 H     1.849023     2.208123     1.792085
 C     0.522255     2.605873     0.121473
 H    -0.336213     3.238831    -0.111212
 H     1.325331     2.688326    -0.617668
 H     0.045471     0.061489    -0.747864
Co     0.035478     0.683732     0.610700
 C     2.945519     0.444759    -0.989797
 C     3.122171    -0.376395     1.819581
 C     1.812400    -2.127599    -0.153289
 C    -2.589668    -0.990096    -0.298610
 C    -3.298510     1.642929     0.784663
 C    -2.228401     1.366559    -1.955128
 P    -1.954626     0.774060    -0.204636
 P     1.922450    -0.338926     0.364024
 C    -0.539792    -0.124413     2.024735
 O    -1.011183    -0.638627     2.951316
 H     2.369962     0.253792    -1.908274
 H     2.853338     1.522074    -0.804513
 C     4.380607     0.048470    -1.149327
 C     4.706623    -1.153954    -1.791343
 H     3.904262    -1.763711    -2.212680
 C     5.424405     0.859718    -0.652882
 C     5.161480     2.211411    -0.049032
 H     4.500057     2.167305     0.829700
 H     4.676440     2.886506    -0.772666
 H     6.100131     2.685481     0.268368
 C     6.022913    -1.591651    -1.899469
 H     6.245208    -2.537328    -2.399305
 C     6.742353     0.402110    -0.764527
 H     7.550009     1.026369    -0.372292
 C     7.048845    -0.814810    -1.367573
 H     8.087799    -1.145453    -1.436010
 H     3.640202     0.591193     1.709085
 C     2.412925    -0.356459     3.169517
 H     3.158550    -0.275779     3.976932
 H     1.718857     0.488642     3.256811
 H     1.834995    -1.275416     3.346763
 C     4.182936    -1.474390     1.784667
 H     4.740613    -1.507683     0.840328
 H     4.912246    -1.301940     2.592595
 H     3.740627    -2.467069     1.960074
 H     2.854106    -2.484218    -0.207003
 C     1.066090    -2.944765     0.896149
 H     1.060356    -4.009439     0.612598
 H     1.518164    -2.868313     1.894607
 H     0.021845    -2.609410     0.979166
 C     1.166158    -2.311176    -1.519444
 H     1.686243    -1.767420    -2.321486
 H     1.161793    -3.378861    -1.791453
 H     0.125155    -1.957873    -1.505139
 H    -1.983663    -1.455511    -1.089673
 H    -2.253105    -1.448442     0.639294
 C    -4.048340    -1.235203    -0.528508
 C    -4.577070    -1.153143    -1.823790
 H    -3.899997    -0.967003    -2.661134
 C    -4.914139    -1.542376     0.544171
 C    -4.400476    -1.773785     1.938070
 H    -3.790589    -0.944286     2.324113
 H    -3.757537    -2.668560     1.978681
 H    -5.231674    -1.932532     2.638500
 C    -5.939172    -1.301266    -2.067842
 H    -6.324152    -1.223836    -3.087340
 C    -6.281695    -1.682753     0.282054
 H    -6.954850    -1.910175     1.113317
 C    -6.801207    -1.550966    -1.003300
 H    -7.874632    -1.662034    -1.173522
 H    -3.531752     0.875432     1.542009
 C    -2.746107     2.848598     1.536065
 H    -3.499476     3.230055     2.243755
 H    -1.844551     2.581966     2.102438
 H    -2.486377     3.676416     0.857988
 C    -4.591530     1.984909     0.050415
 H    -5.031458     1.123864    -0.468537
 H    -5.337685     2.348207     0.775751
 H    -4.441458     2.790045    -0.684454
 H    -3.294131     1.149429    -2.138388
 C    -2.012347     2.865614    -2.142363
 H    -2.410495     3.175970    -3.121909
 H    -2.512617     3.473268    -1.376063
 H    -0.942742     3.114240    -2.125229
 C    -1.391417     0.596269    -2.967458
 H    -1.565905    -0.489222    -2.937093
 H    -1.626705     0.939856    -3.987801
 H    -0.319219     0.765605    -2.785905
