  96
scf done:    -3882.051002
 C    -0.812589    -2.573805    -2.490855
 H    -1.272566    -3.513561    -2.165798
 H    -1.417814    -2.014673    -3.212534
 C     0.593694    -2.475288    -2.539216
 H     1.210626    -3.328261    -2.239487
 H     1.064310    -1.827647    -3.285734
 H    -0.173775    -0.276834    -1.914557
Co    -0.130200    -1.422559    -0.974552
 C    -2.802164     0.409340    -1.869313
 C    -3.269886    -1.249776     0.401908
 C    -1.595599     1.050333     0.712385
 C     1.764858     0.310876     1.264101
 C     3.247510    -1.501178    -0.371810
 C     2.232584     0.881409    -1.569450
 P     1.728736    -0.469247    -0.439107
 P    -1.894115    -0.357185    -0.426498
 C    -0.165653    -2.577508     0.342178
 O    -0.214168    -3.260225     1.269382
 H    -2.782447    -0.382864    -2.631268
 H    -2.152892     1.212863    -2.247750
 C    -4.201315     0.867042    -1.606931
 C    -4.479485     2.147174    -1.111482
 H    -3.664126     2.856881    -0.958798
 C    -5.271351    -0.018534    -1.791726
 H    -5.071124    -1.026069    -2.165412
 C    -5.783645     2.524068    -0.796124
 H    -5.977596     3.527392    -0.408846
 C    -6.575189     0.354882    -1.479816
 H    -7.391430    -0.356527    -1.626190
 C    -6.836753     1.628313    -0.975085
 H    -7.859302     1.924146    -0.728120
 C    -3.422370    -2.616436     0.145324
 H    -2.677506    -3.133757    -0.461835
 C    -4.232136    -0.589583     1.172751
 H    -4.133387     0.482806     1.358856
 C    -4.521597    -3.301024     0.656537
 H    -4.636602    -4.369435     0.458507
 C    -5.342092    -1.263071     1.691241
 C    -6.378609    -0.512372     2.475350
 H    -5.919590     0.085337     3.277810
 H    -6.922332     0.188147     1.820789
 H    -7.113127    -1.190866     2.931540
 C    -5.471922    -2.629839     1.423479
 H    -6.332260    -3.175192     1.821674
 C    -1.274175     2.326948     0.241162
 H    -1.311380     2.548830    -0.827102
 C    -1.494337     0.796407     2.087143
 H    -1.723802    -0.205171     2.462958
 C    -0.873001     3.322524     1.131788
 H    -0.627380     4.318814     0.754894
 C    -1.083239     1.778798     2.990829
 C    -0.919409     1.459682     4.447652
 H    -1.171790     2.321650     5.082349
 H    -1.550373     0.611417     4.748258
 H     0.126758     1.187357     4.666859
 C    -0.775560     3.052568     2.493756
 H    -0.452319     3.837128     3.183107
 H     1.315972    -0.465788     1.901584
 H     1.040582     1.136545     1.237699
 C     3.086203     0.745652     1.810706
 C     3.572702     2.044640     1.614782
 H     2.957537     2.775021     1.086086
 C     3.892747    -0.164597     2.507724
 H     3.533199    -1.185260     2.662950
 C     4.831787     2.415797     2.082500
 H     5.192143     3.433896     1.915400
 C     5.148225     0.204575     2.982159
 H     5.759047    -0.524854     3.519660
 C     5.626938     1.496471     2.765398
 H     6.613293     1.788259     3.134209
 C     3.144138    -2.879396    -0.156395
 H     2.161961    -3.351156    -0.114859
 C     4.517750    -0.916922    -0.427802
 H     4.609126     0.161375    -0.581201
 C     4.294530    -3.646670     0.007890
 H     4.209108    -4.722998     0.175686
 C     5.682138    -1.674008    -0.266707
 C     7.023174    -1.000915    -0.287261
 H     7.145648    -0.379765    -1.187932
 H     7.130485    -0.332326     0.582547
 H     7.844747    -1.730464    -0.260021
 C     5.552288    -3.049160    -0.048448
 H     6.450482    -3.659880     0.079619
 C     2.911036     0.579958    -2.758351
 H     3.236725    -0.443445    -2.957386
 C     1.823153     2.196275    -1.343265
 H     1.271125     2.442030    -0.434799
 C     3.176981     1.586181    -3.680998
 H     3.710279     1.346518    -4.604227
 C     2.081594     3.219019    -2.263304
 C     1.614155     4.618557    -1.982320
 H     0.513109     4.676069    -1.977321
 H     1.959382     4.966182    -0.995880
 H     1.980379     5.327481    -2.737911
 C     2.767973     2.897149    -3.436744
 H     2.983829     3.680684    -4.168219
