 102
scf done:    -3960.621551
 C    -1.003726    -1.755394    -2.870609
 H    -1.472612    -2.738094    -2.750111
 H    -1.632949    -1.030839    -3.398577
 C     0.399039    -1.667433    -2.981253
 H     1.004857    -2.578047    -2.939538
 H     0.848104    -0.862704    -3.572434
 H    -0.258613     0.334071    -1.788169
Co    -0.205850    -1.011551    -1.165540
 C    -2.858147     1.026328    -1.502520
 C    -3.284894    -1.156071     0.337136
 C    -1.573671     0.993172     1.110463
 C     1.756928     0.282895     1.260117
 C     3.171890    -1.351417    -0.654131
 C     2.281585     1.227240    -1.454269
 P     1.708220    -0.248426    -0.532433
 P    -1.939263    -0.093748    -0.321477
 C    -0.171364    -2.410825    -0.114270
 O    -0.146832    -3.247840     0.679125
 H    -2.194604     1.890888    -1.653648
 H    -2.845318     0.474901    -2.451200
 C    -4.241745     1.442450    -1.110514
 C    -4.430133     2.538105    -0.258471
 H    -3.561014     3.106587     0.077521
 C    -5.369997     0.719100    -1.553634
 C    -5.237113    -0.446002    -2.490174
 H    -4.633679    -1.252848    -2.047999
 H    -4.749619    -0.154830    -3.434785
 H    -6.222642    -0.863126    -2.737817
 C    -5.697032     2.907503     0.184050
 H    -5.813096     3.762866     0.853820
 C    -6.636253     1.106269    -1.103157
 H    -7.508947     0.541965    -1.443190
 C    -6.808440     2.181316    -0.235484
 H    -7.810264     2.456193     0.103286
 C    -3.373338    -2.483500    -0.091485
 H    -2.613766    -2.874611    -0.770539
 C    -4.280263    -0.665342     1.194577
 H    -4.243505     0.369971     1.539264
 C    -4.424865    -3.298350     0.321472
 H    -4.472628    -4.332787    -0.029605
 C    -5.326984    -1.482683     1.603495
 H    -6.096992    -1.073617     2.263572
 C    -5.420155    -2.813701     1.175210
 C    -6.542916    -3.692562     1.641758
 H    -6.368217    -4.037893     2.674372
 H    -7.502058    -3.153175     1.639511
 H    -6.648017    -4.584754     1.008523
 C    -1.180122     2.325724     0.944611
 H    -1.236532     2.796987    -0.039041
 C    -1.464913     0.433178     2.390525
 H    -1.758508    -0.607564     2.551150
 C    -0.679846     3.065535     2.014145
 H    -0.374457     4.103384     1.852259
 C    -0.964557     1.174707     3.455388
 H    -0.881300     0.707184     4.440508
 C    -0.545027     2.500261     3.287060
 C     0.071703     3.269243     4.416938
 H    -0.334045     2.955448     5.389507
 H     1.161548     3.100623     4.446001
 H    -0.090720     4.351228     4.307634
 H     1.083744     1.149098     1.316607
 H     1.234356    -0.530285     1.780639
 C     3.076959     0.586900     1.891740
 C     3.633340     1.866514     1.766528
 H     3.074310     2.636655     1.231440
 C     3.790773    -0.405297     2.598199
 C     3.231671    -1.784687     2.789187
 H     3.063344    -2.291261     1.826592
 H     2.262140    -1.761374     3.312964
 H     3.916760    -2.407001     3.380798
 C     4.886194     2.169167     2.292257
 H     5.300621     3.173044     2.172389
 C     5.045263    -0.082071     3.125924
 H     5.600015    -0.852045     3.669322
 C     5.600963     1.185403     2.971406
 H     6.586110     1.405712     3.389739
 C     3.006822    -2.720860    -0.876523
 H     2.006302    -3.120296    -1.043448
 C     4.473859    -0.862517    -0.460350
 H     4.639715     0.203862    -0.296304
 C     4.102055    -3.582512    -0.878225
 H     3.943576    -4.651173    -1.046720
 C     5.562208    -1.725899    -0.464787
 H     6.564132    -1.321037    -0.296657
 C     5.397721    -3.102864    -0.667879
 C     6.583435    -4.021921    -0.680348
 H     7.246148    -3.830764     0.177547
 H     6.277615    -5.076996    -0.648857
 H     7.185982    -3.875810    -1.591976
 C     3.076579     1.091061    -2.596736
 H     3.445492     0.104802    -2.887409
 C     1.811911     2.504483    -1.126516
 H     1.162548     2.640949    -0.259724
 C     3.405428     2.200911    -3.371962
 H     4.027231     2.065631    -4.261468
 C     2.147858     3.609887    -1.900250
 H     1.770316     4.597069    -1.617699
 C     2.955501     3.481638    -3.037234
 C     3.340864     4.681373    -3.851723
 H     2.526490     5.419817    -3.892454
 H     4.218306     5.188356    -3.416052
 H     3.602324     4.402110    -4.882411
