  94
scf done:    -5942.150885
 C    -1.571180    -3.451746    -0.011672
 H    -2.012647    -3.775289     0.936694
 H    -2.259469    -3.477547    -0.862043
 C    -0.192721    -3.622475    -0.222687
 H     0.432608    -4.056898     0.562199
 H     0.188997    -3.779104    -1.234567
 H    -0.796281    -1.584841    -1.365581
Co    -0.602395    -1.658351     0.095596
 C    -3.830295    -0.891436     1.165026
 O    -2.515836     1.056334    -0.084873
 O    -3.176733    -0.931629    -1.446572
 C     0.876435     0.405973    -2.140517
 O     1.937533     0.201127     0.430510
 O     2.241666    -1.669586    -1.346986
 P     1.070995    -0.684287    -0.675344
 P    -2.420303    -0.622995    -0.002023
 C    -0.093622    -1.603741     1.780964
 O     0.336335    -1.530546     2.841444
 H    -4.724158    -0.478735     0.673363
 H    -3.967941    -1.979229     1.245878
 C    -3.616933    -0.226220     2.493421
 C    -3.967279     1.123553     2.627800
 H    -4.432388     1.633388     1.780682
 C    -3.031973    -0.899929     3.584603
 C    -2.746702    -2.373080     3.542294
 H    -2.053581    -2.665930     4.341938
 H    -2.305995    -2.681002     2.586395
 H    -3.676588    -2.951949     3.675165
 C    -3.711271     1.825192     3.800127
 H    -3.982254     2.880428     3.875654
 C    -2.768004    -0.174472     4.752491
 H    -2.299690    -0.689530     5.595458
 C    -3.091429     1.175026     4.864349
 H    -2.867402     1.715070     5.787212
 C    -1.706458     1.975655     0.500602
 C    -0.965944     1.728592     1.658945
 H    -1.021812     0.764842     2.161077
 C    -1.683581     3.248806    -0.076642
 H    -2.280325     3.433067    -0.971872
 C    -0.184026     2.737414     2.211075
 H     0.389665     2.543995     3.118753
 C    -0.909907     4.261134     0.479124
 H    -0.878439     5.251453     0.022581
 C    -0.143579     3.993883     1.612035
Cl     0.898273     5.221331     2.259174
 C    -4.463117    -0.612664    -1.780997
 C    -5.384589    -1.649732    -1.934774
 H    -5.060616    -2.676406    -1.753417
 C    -4.848905     0.708258    -2.017895
 H    -4.115817     1.504968    -1.898106
 C    -6.692819    -1.371824    -2.316779
 H    -7.420384    -2.175485    -2.440099
 C    -6.158659     0.989719    -2.395571
 H    -6.473386     2.017670    -2.582362
 C    -7.076095    -0.049890    -2.542169
Cl    -8.704991     0.302640    -3.012413
 H     0.419787    -0.269746    -2.881173
 H     0.090637     1.119721    -1.852404
 C     2.102501     1.071742    -2.696071
 C     2.978504     0.330731    -3.497853
 H     2.736391    -0.710282    -3.721042
 C     2.398973     2.419600    -2.410303
 C     1.460494     3.269382    -1.609736
 H     1.120712     2.766485    -0.695633
 H     0.556618     3.519351    -2.190324
 H     1.935521     4.211709    -1.305546
 C     4.155994     0.888496    -3.984756
 H     4.829318     0.289822    -4.602691
 C     3.591083     2.961682    -2.900294
 H     3.837035     3.998546    -2.657079
 C     4.470096     2.209332    -3.673788
 H     5.399106     2.657497    -4.033853
 C     3.101913     0.921628     0.320000
 C     3.137296     2.156226     0.966917
 H     2.253544     2.497241     1.504255
 C     4.230126     0.454594    -0.356570
 H     4.216045    -0.510631    -0.857466
 C     4.271528     2.956457     0.891909
 H     4.287762     3.934034     1.375996
 C     5.365784     1.253292    -0.432379
 H     6.240936     0.909135    -0.984669
 C     5.378863     2.505952     0.177032
Cl     6.779271     3.517721     0.028190
 C     2.796431    -2.744922    -0.718725
 C     3.154184    -3.833074    -1.516076
 H     2.957147    -3.786931    -2.588603
 C     3.040366    -2.774208     0.656267
 H     2.781902    -1.918539     1.280934
 C     3.739009    -4.956786    -0.944607
 H     4.017821    -5.813276    -1.560275
 C     3.617701    -3.903433     1.231306
 H     3.806346    -3.937714     2.305346
 C     3.962349    -4.991107     0.432205
Cl     4.680893    -6.394618     1.150617
