  80
scf done:    -3272.770463
 C    -1.311838     2.966761     0.033064
 H    -1.649747     3.331720    -0.942719
 H    -2.124516     2.861177     0.760302
 C    -0.023781     3.316122     0.492855
 H     0.610342     3.941887    -0.144366
 H     0.149282     3.457616     1.563229
 H    -0.470274     1.121980     1.355582
Co    -0.075592     1.371031    -0.047660
 C    -2.880852     0.047314     1.091664
 C    -2.968468     0.676610    -1.768376
 C    -1.676138    -1.766952    -0.822791
 C     2.300341    -0.978600    -0.490284
 C     3.290266     1.394934     0.905629
 C     1.419186    -0.515357     2.323956
 P     1.724264     0.375929     0.701930
 P    -1.789149     0.060813    -0.431021
 C     0.656968     1.582962    -1.622920
 O     1.260840     1.685945    -2.601301
 H    -2.862329     1.090441     1.433839
 H    -2.307896    -0.520310     1.840062
 C    -4.289874    -0.442143     0.989344
 C    -4.608629    -1.804541     1.073713
 H    -3.816199    -2.532936     1.261235
 C    -5.336168     0.467745     0.784420
 H    -5.111143     1.537028     0.740315
 C    -5.921289    -2.244961     0.919196
 H    -6.145400    -3.312557     0.984107
 C    -6.649423     0.031593     0.629305
 H    -7.447071     0.760103     0.464561
 C    -6.946836    -1.329339     0.686938
 H    -7.975879    -1.674503     0.563204
 H    -3.502149     1.484408    -1.236733
 C    -2.240342     1.311605    -2.948749
 H    -2.974993     1.696159    -3.674548
 H    -1.603017     2.147157    -2.637690
 H    -1.601510     0.589673    -3.479251
 C    -4.007928    -0.323389    -2.272294
 H    -4.559602    -0.825204    -1.468448
 H    -4.747034     0.204800    -2.896060
 H    -3.549287    -1.096089    -2.907714
 H    -2.716309    -2.112851    -0.941768
 C    -0.935911    -1.993558    -2.136336
 H    -0.851058    -3.071603    -2.348719
 H    -1.447018    -1.528598    -2.989958
 H     0.081885    -1.580286    -2.096233
 C    -1.040008    -2.567998     0.304811
 H    -1.585872    -2.479932     1.254930
 H    -1.009022    -3.637338     0.040534
 H    -0.007654    -2.244378     0.490717
 H     1.836889    -0.685700    -1.440922
 H     1.789931    -1.898983    -0.175961
 C     3.752365    -1.248245    -0.745570
 C     4.430009    -2.316787    -0.144824
 H     3.890901    -2.984244     0.530954
 C     4.464221    -0.432497    -1.636690
 H     3.940281     0.376897    -2.153644
 C     5.782982    -2.538734    -0.391905
 H     6.290561    -3.377929     0.090072
 C     5.818317    -0.647394    -1.880704
 H     6.353119     0.005046    -2.575258
 C     6.486658    -1.697056    -1.251840
 H     7.548682    -1.867489    -1.442873
 H     3.620894     1.481057    -0.144304
 C     3.040036     2.811477     1.407793
 H     3.997866     3.355009     1.449135
 H     2.361452     3.359638     0.748552
 H     2.610261     2.824810     2.420099
 C     4.424693     0.748117     1.695793
 H     4.668558    -0.265599     1.357514
 H     5.335627     1.357719     1.582040
 H     4.195403     0.711729     2.771098
 H     0.399611    -0.894916     2.148090
 C     2.302078    -1.705604     2.672517
 H     1.955369    -2.151380     3.619300
 H     2.248404    -2.495766     1.910615
 H     3.357224    -1.432700     2.803869
 C     1.318146     0.483951     3.472377
 H     0.662163     1.326139     3.206548
 H     0.893298    -0.008158     4.361891
 H     2.301824     0.884497     3.757807
