 106
scf done:    -4261.413041
 C     0.108985     4.043114     0.512184
 H    -0.336693     4.656838    -0.278306
 H    -0.373386     4.162864     1.488053
 C     1.476349     3.701575     0.443331
 H     2.087487     4.037012    -0.399892
 H     2.045668     3.541467     1.362954
 H     0.424648     1.796812     1.430617
Co     0.332149     2.101411    -0.011389
 C    -2.920266     2.591184    -0.586040
 O    -1.911359    -0.028320    -0.413523
 O    -2.372661     1.409859     1.698303
 C     1.170021    -0.792963     1.417457
 O     1.584237    -0.438705    -1.317695
 O     3.166399     0.612788     0.473556
 P     1.549512     0.419859     0.103209
 P    -1.655888     1.500507     0.187897
 C     0.362820     2.304037    -1.758187
 O     0.389257     2.404124    -2.900431
 H    -2.920364     3.461537     0.089436
 H    -2.443446     2.925698    -1.518623
 C    -4.307440     2.080975    -0.819736
 C    -5.279876     2.229365     0.174197
 H    -5.010503     2.736415     1.104339
 C    -4.635683     1.429650    -2.026219
 C    -3.628156     1.282143    -3.129359
 H    -2.687959     0.835209    -2.773879
 H    -3.371366     2.259361    -3.572138
 H    -4.017486     0.643684    -3.933492
 C    -6.564542     1.722793     0.003443
 H    -7.310240     1.844463     0.792629
 C    -5.929322     0.922943    -2.178693
 H    -6.185678     0.403625    -3.105856
 C    -6.888013     1.059267    -1.177666
 H    -7.890458     0.649852    -1.324043
 C    -3.002250    -0.849301    -0.531979
 C    -2.965464    -1.768538    -1.579450
 H    -2.098836    -1.773016    -2.243142
 C    -4.094185    -0.833592     0.337366
 H    -4.138134    -0.108684     1.147488
 C    -4.027314    -2.647835    -1.771343
 H    -3.987215    -3.357932    -2.602004
 C    -5.147039    -1.717236     0.127196
 H    -6.005720    -1.676825     0.802861
 C    -5.142990    -2.635813    -0.928671
 C    -6.311108    -3.550175    -1.156923
 H    -7.186351    -2.988751    -1.524371
 H    -6.618397    -4.053624    -0.227311
 H    -6.078219    -4.325365    -1.900626
 C    -1.721551     0.810689     2.749093
 C    -1.864853    -0.558102     2.979995
 H    -2.504819    -1.152185     2.326088
 C    -0.912427     1.573920     3.588701
 H    -0.821571     2.646125     3.409399
 C    -1.172827    -1.158387     4.027419
 H    -1.281920    -2.234412     4.188529
 C    -0.223048     0.957708     4.631085
 H     0.418701     1.563920     5.276165
 C    -0.324899    -0.419127     4.860932
 C     0.469799    -1.093769     5.940569
 H     1.318265    -1.650883     5.509280
 H    -0.141753    -1.818026     6.499374
 H     0.878098    -0.366941     6.656793
 H     1.341960    -0.214127     2.339171
 H     0.083226    -0.919034     1.345078
 C     1.882839    -2.108035     1.453539
 C     3.165567    -2.188484     2.006008
 H     3.622869    -1.280562     2.406240
 C     1.274692    -3.267313     0.930888
 C    -0.120868    -3.231762     0.379840
 H    -0.256283    -2.425575    -0.354043
 H    -0.861995    -3.058794     1.178289
 H    -0.376030    -4.179166    -0.113233
 C     3.867447    -3.389508     2.021064
 H     4.871312    -3.431677     2.450447
 C     1.998419    -4.463462     0.945764
 H     1.538865    -5.361700     0.524716
 C     3.283136    -4.531877     1.478918
 H     3.825448    -5.480607     1.474390
 C     2.210642    -1.605175    -1.673073
 C     3.516667    -1.919737    -1.295108
 H     4.082661    -1.234361    -0.666707
 C     1.496054    -2.475314    -2.493554
 H     0.488781    -2.193139    -2.805257
 C     4.067325    -3.131295    -1.695690
 H     5.081894    -3.378760    -1.371910
 C     2.066127    -3.682306    -2.888609
 H     1.490078    -4.362765    -3.521982
 C     3.355211    -4.042183    -2.485061
 C     3.952345    -5.368591    -2.853958
 H     3.972924    -6.045556    -1.983092
 H     4.990513    -5.262483    -3.204323
 H     3.375746    -5.865996    -3.646857
 C     3.941774     1.576089    -0.112118
 C     4.829672     2.277057     0.702862
 H     4.858351     2.045299     1.769275
 C     3.877484     1.857353    -1.476447
 H     3.190160     1.303764    -2.117963
 C     5.642405     3.261809     0.153223
 H     6.330154     3.809836     0.803497
 C     4.692353     2.854874    -2.008191
 H     4.626251     3.075338    -3.077136
 C     5.587707     3.575027    -1.211535
 C     6.482240     4.628409    -1.798498
 H     7.497855     4.235893    -1.974649
 H     6.581371     5.493592    -1.125835
 H     6.098408     4.990183    -2.763018
