  76
scf done:    -4263.555631
 C     0.166565    -4.314326    -1.015451
 H     0.025419    -5.072762    -0.237515
 H    -0.654655    -4.266280    -1.737544
 C     1.478047    -3.980878    -1.433384
 H     2.332014    -4.488052    -0.970827
 H     1.654830    -3.676570    -2.469547
 H     0.124650    -1.977731    -1.585856
Co     0.683884    -2.504689    -0.315136
 O    -1.196002    -0.030085    -0.314497
 C    -2.675168    -2.370239    -0.458085
 C    -1.566141    -1.373988     2.017825
 O     1.698926     0.159603     0.897406
 C     3.783739    -1.014948    -0.352325
 C     1.726962     0.293012    -1.901241
 P     1.961058    -0.822020    -0.461950
 P    -1.145395    -1.633816     0.249579
 C     1.344412    -3.048359     1.215628
 O     1.814574    -3.392543     2.206693
 C    -2.293848     0.756620    -0.445318
 C    -2.729459     1.560271     0.612931
 H    -2.190657     1.533929     1.561511
 C    -2.951826     0.819303    -1.677557
 H    -2.581704     0.210331    -2.504373
 C    -3.837525     2.387810     0.453597
 H    -4.186432     3.014472     1.275949
 C    -4.060294     1.642957    -1.840882
 H    -4.583159     1.691478    -2.797405
 C    -4.505138     2.418712    -0.769964
Cl    -5.888739     3.441894    -0.967927
 H    -2.615133    -2.167431    -1.541419
 H    -2.515469    -3.458022    -0.367302
 C    -4.042481    -1.990700     0.101348
 H    -4.168646    -0.897734     0.112046
 H    -4.111605    -2.313613     1.153034
 C    -5.175801    -2.617966    -0.696075
 H    -5.166196    -2.266280    -1.740169
 H    -5.093454    -3.716523    -0.716657
 H    -6.156915    -2.362447    -0.268241
 H    -0.739818    -0.762307     2.418351
 H    -2.489052    -0.775928     2.094857
 C    -1.705709    -2.669614     2.809930
 H    -0.781550    -3.260346     2.718913
 H    -2.504858    -3.291998     2.371930
 C    -2.005324    -2.419824     4.280114
 H    -1.202606    -1.831343     4.751770
 H    -2.946075    -1.860879     4.409006
 H    -2.097905    -3.364557     4.836679
 C     1.957536     1.489221     0.991661
 C     0.988169     2.414367     0.592606
 H     0.042598     2.042194     0.198522
 C     3.166876     1.939894     1.527655
 H     3.904429     1.209399     1.864665
 C     1.238347     3.778642     0.692960
 H     0.488862     4.505861     0.376304
 C     3.421091     3.304748     1.631922
 H     4.364110     3.665978     2.045452
 C     2.459173     4.219196     1.204420
Cl     2.777246     5.919080     1.324263
 H     4.247137    -0.015193    -0.298639
 H     3.971292    -1.510456     0.615370
 C     4.384603    -1.830067    -1.490921
 H     4.153374    -1.348907    -2.456981
 H     3.893436    -2.814367    -1.521991
 C     5.889736    -1.999903    -1.356477
 H     6.405369    -1.026115    -1.356073
 H     6.148800    -2.510943    -0.415554
 H     6.302195    -2.596148    -2.184407
 H     1.636769    -0.402732    -2.752933
 H     0.712644     0.703727    -1.765361
 C     2.747678     1.383012    -2.208174
 H     3.711288     0.920840    -2.479727
 H     2.945486     1.993756    -1.314712
 C     2.281042     2.288841    -3.337598
 H     2.085752     1.716404    -4.258717
 H     1.347374     2.806286    -3.065030
 H     3.032076     3.058030    -3.572534
