  92
scf done:    -4872.799570
 C    -0.966732     1.852462     3.765599
 H    -1.141481     2.933484     3.729794
 H    -1.834933     1.278784     4.104790
 C     0.337012     1.364898     4.036823
 H     1.152614     2.075888     4.211746
 H     0.456809     0.419482     4.575536
 H    -0.707104    -0.187846     2.562936
Co    -0.131149     1.092656     2.102863
 O    -1.980391    -0.776850     0.408066
 C    -3.382702     1.458513     1.348372
 C    -1.567205     1.495041    -0.982730
 O     1.632204     0.152546    -0.335219
 C     2.993694    -0.107987     2.125393
 C     0.934533    -2.007528     1.186801
 P     1.335144    -0.194451     1.289034
 P    -1.731600     0.857403     0.748993
 C     0.655695     2.594989     1.627007
 O     1.259999     3.550793     1.426533
 C    -3.081745    -1.421165    -0.065776
 C    -3.566993    -1.226315    -1.361175
 H    -3.074120    -0.522225    -2.030611
 C    -3.691114    -2.360517     0.768605
 H    -3.278175    -2.519047     1.766573
 C    -4.698373    -1.911100    -1.790051
 H    -5.103665    -1.739596    -2.788063
 C    -4.814546    -3.058237     0.338974
 H    -5.305902    -3.781796     0.991422
 C    -5.326574    -2.813001    -0.933514
Cl    -6.770069    -3.622203    -1.449788
 H    -3.171756     2.515302     1.583130
 H    -3.504655     0.962741     2.323376
 C    -4.618521     1.310421     0.510019
 C    -5.580037     0.346174     0.838251
 H    -5.427847    -0.279646     1.720248
 C    -4.853714     2.120698    -0.609303
 H    -4.150116     2.915714    -0.866735
 C    -6.708726     0.155996     0.047503
 H    -7.429646    -0.621761     0.309548
 C    -5.984795     1.935287    -1.402530
 H    -6.144019     2.576561    -2.272842
 C    -6.910586     0.943766    -1.085070
 H    -7.792203     0.790782    -1.711639
 H    -2.553082     1.486663    -1.472913
 H    -0.939118     0.733365    -1.468309
 C    -0.903074     2.833675    -1.099708
 C     0.328785     2.940545    -1.755582
 H     0.786862     2.043842    -2.178316
 C    -1.466534     3.994324    -0.552754
 H    -2.422602     3.944297    -0.026359
 C     0.979874     4.166404    -1.862797
 H     1.944326     4.220844    -2.373562
 C    -0.816858     5.221648    -0.656950
 H    -1.270377     6.112760    -0.216684
 C     0.410487     5.312018    -1.310795
 H     0.923474     6.273496    -1.385814
 C     2.797980     0.443397    -0.966842
 C     3.300878    -0.447099    -1.918501
 H     2.768696    -1.378857    -2.109996
 C     3.458319     1.652167    -0.724225
 H     3.033369     2.368667    -0.018906
 C     4.477766    -0.149143    -2.596545
 H     4.881919    -0.845043    -3.333392
 C     4.642745     1.947732    -1.395045
 H     5.169292     2.884245    -1.204596
 C     5.152958     1.040801    -2.322911
Cl     6.631481     1.401110    -3.153506
 H     2.695127    -0.000540     3.179740
 H     3.419198     0.865065     1.835276
 C     3.991313    -1.215495     1.976592
 C     4.964654    -1.205751     0.969776
 H     5.022630    -0.361909     0.281158
 C     3.971958    -2.295806     2.870109
 H     3.243648    -2.304538     3.686414
 C     5.862816    -2.261332     0.836819
 H     6.608357    -2.233388     0.038642
 C     4.871696    -3.352182     2.741392
 H     4.836517    -4.184221     3.448677
 C     5.815623    -3.343544     1.715155
 H     6.520715    -4.171213     1.609002
 H    -0.155854    -2.034194     1.310004
 H     1.388063    -2.477839     2.072484
 C     1.327276    -2.711607    -0.076663
 C     2.507411    -3.455243    -0.180259
 H     3.171001    -3.541641     0.681284
 C     0.490418    -2.622862    -1.198389
 H    -0.435824    -2.049546    -1.121495
 C     2.848092    -4.085539    -1.376420
 H     3.776455    -4.658764    -1.435277
 C     0.828554    -3.253188    -2.392660
 H     0.161231    -3.174187    -3.254372
 C     2.013446    -3.985207    -2.488268
 H     2.280630    -4.480176    -3.425022
