  88
scf done:    -4422.472151
 C    -1.690937     2.445109    -2.829989
 H    -2.407752     2.197904    -3.619787
 H    -2.081182     3.126130    -2.066933
 C    -0.309762     2.442538    -3.103191
 H     0.047547     2.192685    -4.107218
 H     0.353853     3.105317    -2.541962
 H    -0.584979     1.640738    -0.818747
Co    -0.813992     0.805371    -2.019743
 C    -4.101925     0.686879    -1.160419
 O    -2.812456    -1.532839    -0.969264
 O    -2.298618     0.139500     0.792954
 C     1.909658    -1.229970    -2.095127
 O     2.298789     1.211662    -1.280843
 O     0.899848    -0.288465     0.310111
 P     1.016390     0.153595    -1.278597
 P    -2.393550     0.072928    -0.868095
 C    -0.963844    -0.278293    -3.388789
 O    -1.038139    -1.011220    -4.270243
 H    -4.326925     0.396387    -2.199228
 H    -4.036286     1.785277    -1.150377
 C    -5.121590     0.174658    -0.191535
 C    -5.410038     0.884464     0.979498
 H    -4.914480     1.840346     1.168717
 C    -5.762036    -1.051370    -0.407793
 H    -5.534652    -1.621328    -1.311258
 C    -6.317144     0.385005     1.910892
 H    -6.529969     0.954385     2.818803
 C    -6.670068    -1.551819     0.521695
 H    -7.162881    -2.509165     0.335514
 C    -6.950119    -0.836135     1.685288
 H    -7.662880    -1.228861     2.414291
 C    -2.026419    -2.557124    -0.526691
 C    -2.135901    -2.983228     0.798967
 H    -2.818689    -2.453787     1.464662
 C    -1.178925    -3.222320    -1.412949
 H    -1.140826    -2.903707    -2.455570
 C    -1.382756    -4.066595     1.242664
 H    -1.449856    -4.422440     2.272502
 C    -0.414889    -4.300209    -0.968905
 H     0.253816    -4.839606    -1.642470
 C    -0.521370    -4.704208     0.355734
 F     0.225047    -5.720033     0.788836
 C    -1.732333     1.128903     1.531602
 C    -0.905991     0.762647     2.595241
 H    -0.706201    -0.295052     2.767497
 C    -1.984807     2.479373     1.278543
 H    -2.625556     2.770523     0.445355
 C    -0.329298     1.738673     3.401101
 H     0.332848     1.473363     4.226976
 C    -1.413114     3.460924     2.083664
 H    -1.591139     4.521006     1.896520
 C    -0.590376     3.077640     3.132917
 F    -0.010614     4.021541     3.881178
 H     1.988974    -0.893347    -3.142479
 H     1.182003    -2.055207    -2.084882
 C     3.237077    -1.678519    -1.560693
 C     3.335088    -2.859216    -0.815175
 H     2.437688    -3.454348    -0.628391
 C     4.396881    -0.928425    -1.787197
 H     4.332722    -0.006573    -2.368333
 C     4.555685    -3.266942    -0.284557
 H     4.609154    -4.183409     0.307536
 C     5.619077    -1.337222    -1.259715
 H     6.514680    -0.738231    -1.442218
 C     5.702337    -2.504404    -0.501876
 H     6.660184    -2.821548    -0.082987
 C     2.287064     2.499206    -0.825357
 C     2.974132     3.448780    -1.584900
 H     3.436195     3.136961    -2.523086
 C     1.680687     2.865317     0.378369
 H     1.147023     2.124413     0.975169
 C     3.058522     4.765725    -1.147140
 H     3.588861     5.525035    -1.724400
 C     1.767819     4.184841     0.819742
 H     1.319661     4.491411     1.765587
 C     2.452535     5.118170     0.054040
 F     2.535449     6.378930     0.479394
 C     1.832384    -0.844802     1.148067
 C     3.084817    -0.271251     1.371929
 H     3.381642     0.630437     0.838896
 C     1.453760    -1.999531     1.829620
 H     0.469197    -2.422651     1.630899
 C     3.969889    -0.884067     2.253470
 H     4.964498    -0.471143     2.428355
 C     2.334305    -2.610007     2.717241
 H     2.063498    -3.525012     3.247054
 C     3.588667    -2.046498     2.912347
 F     4.446732    -2.633664     3.747692
