 108
scf done:    -4039.190163
 C    -1.617781    -3.317336    -1.514695
 H    -2.099524    -3.653286    -0.589783
 H    -2.282105    -3.351112    -2.386822
 C    -0.226819    -3.533262    -1.690622
 H     0.341090    -4.027537    -0.895776
 H     0.163800    -3.726823    -2.696158
 H    -0.387503    -1.982875     0.102176
Co    -0.600322    -1.600376    -1.312071
 C     1.283164     0.159173     0.855528
 C     2.650944    -1.965663    -0.738766
 C     1.891728     0.623838    -2.003653
 C    -1.898060     1.372154    -0.281267
 C    -3.713167    -0.423293    -1.740752
 C    -3.038572    -0.961465     1.037374
 P    -2.246124    -0.448989    -0.565467
 P     1.282955    -0.692680    -0.808057
 C    -0.661369    -1.061593    -2.974935
 O    -0.668064    -0.671331    -4.059117
 H     0.427681    -0.298079     1.369338
 H     1.021723     1.207150     0.650735
 C     2.482608     0.097973     1.748854
 C     3.383382     1.165626     1.844720
 H     3.224948     2.059600     1.240078
 C     2.697911    -1.028189     2.556455
 H     1.982910    -1.853544     2.520396
 C     4.475338     1.101670     2.707907
 H     5.162455     1.949705     2.767142
 C     3.790592    -1.095076     3.418691
 H     3.937734    -1.982484     4.039276
 C     4.687747    -0.029792     3.495664
 H     5.543401    -0.078298     4.173453
 H     2.601324    -2.388374     0.275557
 H     2.282419    -2.746374    -1.417359
 C     4.053700    -1.596701    -1.111647
 C     4.443949    -1.634009    -2.458267
 H     3.724208    -1.945716    -3.220593
 C     5.006312    -1.234583    -0.153829
 H     4.721531    -1.214709     0.899288
 C     5.740339    -1.287842    -2.829608
 H     6.029575    -1.313358    -3.883036
 C     6.316722    -0.896105    -0.507580
 C     7.321082    -0.547474     0.551996
 H     6.849197     0.001863     1.379218
 H     7.768946    -1.458938     0.982067
 H     8.141585     0.062333     0.147134
 C     6.670886    -0.914900    -1.861379
 H     7.688173    -0.644490    -2.157863
 H     2.466554     0.086750    -2.772963
 H     0.975406     0.979189    -2.496157
 C     2.658912     1.799087    -1.480826
 C     1.972833     2.933892    -1.024601
 H     0.880719     2.964643    -1.077279
 C     4.056679     1.807374    -1.440287
 H     4.605033     0.941518    -1.813108
 C     2.670820     4.028737    -0.520849
 H     2.124131     4.908560    -0.172754
 C     4.773654     2.894524    -0.930979
 C     6.271027     2.842666    -0.848606
 H     6.694706     2.221693    -1.650545
 H     6.716964     3.846179    -0.906982
 H     6.588952     2.392624     0.106733
 C     4.063146     4.008050    -0.467593
 H     4.606491     4.870161    -0.070957
 H    -1.258176     1.652331    -1.131471
 H    -1.257597     1.395872     0.612950
 C    -3.046024     2.322854    -0.162899
 C    -3.722948     2.526494     1.047918
 H    -3.391461     2.006209     1.948483
 C    -3.488896     3.032564    -1.288726
 H    -2.961108     2.910164    -2.238948
 C    -4.814640     3.387905     1.125625
 H    -5.324918     3.527642     2.081662
 C    -4.581098     3.894743    -1.215662
 H    -4.905979     4.433864    -2.108693
 C    -5.253871     4.071634    -0.007484
 H    -6.111234     4.745733     0.053090
 H    -3.697343     0.553018    -2.247244
 H    -3.468149    -1.184606    -2.492779
 C    -5.063885    -0.700300    -1.154322
 C    -5.511046    -2.022434    -1.022315
 H    -4.883661    -2.841773    -1.385323
 C    -5.888524     0.332240    -0.700160
 H    -5.558388     1.366790    -0.813586
 C    -6.743591    -2.292524    -0.436258
 H    -7.085611    -3.326098    -0.341044
 C    -7.129308     0.077720    -0.104747
 C    -7.971249     1.215102     0.396825
 H    -7.546844     1.638007     1.322385
 H    -8.012908     2.035041    -0.335924
 H    -8.999343     0.893496     0.615369
 C    -7.546775    -1.250364     0.024822
 H    -8.514387    -1.469982     0.484300
 H    -3.793470    -0.207362     1.307019
 H    -3.593572    -1.879696     0.798693
 C    -2.073590    -1.221692     2.152136
 C    -1.617522    -2.522435     2.398059
 H    -1.988121    -3.346009     1.783910
 C    -1.577637    -0.187035     2.955112
 H    -1.921289     0.836735     2.786389
 C    -0.708637    -2.771381     3.422731
 H    -0.374752    -3.794494     3.612906
 C    -0.640483    -0.411510     3.969395
 C    -0.055185     0.730716     4.745954
 H    -0.696038     1.623026     4.703172
 H     0.098091     0.466469     5.802642
 H     0.930406     1.006224     4.332942
 C    -0.220944    -1.725558     4.202458
 H     0.502922    -1.926061     4.996911
