 108
scf done:    -3739.382257
 C    -0.999112    -0.630602    -3.099993
 H    -1.495252    -1.592745    -3.265772
 H    -1.645733     0.229918    -3.306502
 C     0.388662    -0.518198    -3.336801
 H     0.941749    -1.402704    -3.671188
 H     0.798017     0.425048    -3.709275
 H    -0.139840     0.971469    -1.552581
Co     0.003112    -0.481308    -1.352816
 C    -2.562940     1.494913    -0.714278
 C    -3.274955    -1.332006    -0.733672
 C    -1.997598    -0.158420     1.608223
 C     2.036218    -0.486189     1.409261
 C     3.468921     0.042809    -1.058746
 C     1.584823     2.114824     0.059620
 P     1.773706     0.284425    -0.307985
 P    -1.866792    -0.182783    -0.253177
 C     0.357819    -2.163054    -1.032440
 O     0.660048    -3.252148    -0.797128
 H    -2.397079     1.551010    -1.798879
 H    -1.867034     2.221259    -0.267744
 C    -3.984356     1.816670    -0.382927
 C    -4.359917     2.283575     0.884312
 H    -3.592249     2.469092     1.639439
 C    -4.990209     1.625183    -1.340108
 H    -4.714250     1.285237    -2.342155
 C    -5.698707     2.507364     1.197685
 H    -5.969120     2.864710     2.194366
 C    -6.329611     1.846917    -1.030423
 H    -7.096817     1.681949    -1.790857
 C    -6.691033     2.279218     0.244976
 H    -7.741326     2.450259     0.491901
 H    -3.595481    -0.897643    -1.699839
 C    -4.497380    -1.354363     0.192528
 H    -4.842187    -0.341972     0.436032
 H    -4.220611    -1.830845     1.148622
 C    -5.639972    -2.149552    -0.432324
 H    -6.507121    -2.153242     0.248137
 H    -5.971762    -1.635400    -1.352600
 C    -5.213739    -3.573440    -0.766279
 H    -6.034501    -4.119656    -1.259292
 H    -5.000873    -4.114931     0.173561
 C    -3.965159    -3.582070    -1.639623
 H    -4.211074    -3.155852    -2.629554
 H    -3.628001    -4.615223    -1.823120
 C    -2.830994    -2.768058    -1.024491
 H    -2.494398    -3.252918    -0.091798
 H    -1.964175    -2.766818    -1.696023
 H    -3.057642     0.042063     1.844003
 C    -1.158802     0.951991     2.239564
 H    -1.462439     1.938256     1.855497
 H    -0.109860     0.820383     1.939290
 C    -1.246841     0.943497     3.761828
 H    -0.604978     1.737462     4.178121
 H    -2.280834     1.186338     4.067949
 C    -0.859687    -0.414650     4.333881
 H    -0.957221    -0.413148     5.431492
 H     0.205751    -0.611124     4.116682
 C    -1.708108    -1.523276     3.724168
 H    -2.760813    -1.384107     4.030604
 H    -1.398399    -2.506409     4.113822
 C    -1.630303    -1.522105     2.200937
 H    -0.611621    -1.800531     1.881557
 H    -2.288404    -2.304320     1.795954
 H     1.145965    -1.111083     1.546652
 H     1.970595     0.316031     2.155318
 C     3.263713    -1.304950     1.676264
 C     4.295889    -0.805163     2.480460
 H     4.193368     0.189045     2.925098
 C     3.406180    -2.593899     1.142777
 H     2.604477    -3.016996     0.533217
 C     5.446396    -1.552440     2.723781
 H     6.238087    -1.139404     3.353650
 C     4.555913    -3.342780     1.383581
 H     4.645561    -4.344028     0.955189
 C     5.584436    -2.823498     2.168958
 H     6.485976    -3.411437     2.356359
 H     3.668447    -1.010666    -0.789568
 C     4.597113     0.882086    -0.456244
 H     4.572301     0.852597     0.640547
 H     4.462307     1.936482    -0.751463
 C     5.956800     0.401055    -0.953406
 H     6.757765     1.018220    -0.514052
 H     6.123284    -0.629393    -0.591107
 C     6.030258     0.432983    -2.475074
 H     7.000185     0.043187    -2.824832
 H     5.976603     1.483300    -2.815928
 C     4.882966    -0.353533    -3.097503
 H     5.008755    -1.425096    -2.857658
 H     4.913855    -0.277087    -4.196720
 C     3.520665     0.105209    -2.583729
 H     3.320167     1.134364    -2.929257
 H     2.727491    -0.523816    -3.000741
 H     0.514863     2.152343     0.327460
 C     1.731212     2.946613    -1.217794
 H     1.164585     2.472110    -2.034147
 H     2.789440     2.965782    -1.528965
 C     1.248065     4.375805    -0.995603
 H     1.381789     4.967520    -1.915708
 H     0.161523     4.358668    -0.792875
 C     1.971249     5.034406     0.173020
 H     1.577259     6.048174     0.351248
 H     3.038668     5.157344    -0.085968
 C     1.861140     4.191411     1.438080
 H     0.805096     4.159337     1.763695
 H     2.425609     4.657223     2.262283
 C     2.352834     2.762405     1.212223
 H     3.431909     2.779469     0.995733
 H     2.230407     2.190698     2.145140
