  66
scf done:    -3337.866533
 C    -1.060362    -3.439524    -0.609985
 H    -1.429299    -3.947598     0.285828
 H    -1.843429    -3.199731    -1.334829
 C     0.265966    -3.632829    -1.045307
 H     0.919143    -4.319847    -0.496895
 H     0.505114    -3.545349    -2.108497
 H    -0.279044    -1.349361    -1.516442
Co     0.057073    -1.817264    -0.152077
 C    -2.107972     0.653378    -0.841218
 O    -2.889770    -1.383942     0.889287
 O    -1.356515     0.523940     1.643474
 C     2.202142     0.584757     0.845905
 O     3.013820    -0.892901    -1.226456
 O     1.178047     0.843980    -1.512361
 P     1.584516    -0.435078    -0.547842
 P    -1.544274    -0.570849     0.408057
 C     0.659340    -2.386821     1.392872
 O     1.091681    -2.775383     2.384936
 H    -1.234439     1.315614    -0.952743
 H    -2.183643     0.079258    -1.774712
 C    -3.359070     1.412625    -0.533727
 C    -3.296117     2.564244     0.258773
 H    -2.321616     2.896376     0.623600
 C    -4.610135     0.959078    -0.999750
 C    -4.722110    -0.283871    -1.835825
 H    -4.271457    -1.151177    -1.327493
 H    -4.202225    -0.171743    -2.801827
 H    -5.772858    -0.521225    -2.051511
 C    -4.447551     3.266702     0.601940
 H    -4.377053     4.161748     1.224582
 C    -5.756638     1.680353    -0.651026
 H    -6.728953     1.332507    -1.011192
 C    -5.685804     2.821694     0.144472
 H    -6.598339     3.363803     0.403825
 C    -3.950261    -0.848481     1.660072
 H    -3.769921     0.197840     1.945263
 H    -4.886010    -0.897222     1.084881
 H    -4.060457    -1.458846     2.570446
 C    -0.921581     0.074068     2.906141
 H    -1.406901    -0.872401     3.197509
 H     0.169966    -0.075095     2.928880
 H    -1.186645     0.845888     3.642463
 H     1.315504     1.161728     1.154462
 H     2.424164    -0.122963     1.658195
 C     3.360794     1.483918     0.539417
 C     3.123091     2.747228    -0.012067
 H     2.091205     3.051626    -0.200656
 C     4.686886     1.068635     0.773772
 C     4.988736    -0.278494     1.363664
 H     4.554956    -1.081642     0.750039
 H     4.573232    -0.381400     2.380148
 H     6.072442    -0.445633     1.431824
 C     4.171742     3.604111    -0.332488
 H     3.963093     4.586818    -0.762139
 C     5.728828     1.943550     0.449697
 H     6.759170     1.626285     0.633542
 C     5.483638     3.199572    -0.099769
 H     6.318312     3.861153    -0.344057
 C     3.189182    -2.145503    -1.847391
 H     2.880423    -2.971032    -1.188958
 H     2.617798    -2.219783    -2.787396
 H     4.259736    -2.240924    -2.076386
 C     1.018866     0.659780    -2.895535
 H     1.985351     0.436945    -3.376889
 H     0.308980    -0.159411    -3.114217
 H     0.621353     1.595270    -3.312664
