  84
scf done:    -6854.350533
 C    -0.660271    -3.816140    -1.097820
 H    -1.364513    -4.016227    -0.285855
 H    -1.076187    -3.933781    -2.103525
 C     0.717588    -3.957009    -0.889367
 H     1.098267    -4.277335     0.083855
 H     1.384593    -4.176458    -1.727961
 H    -0.010939    -2.160935     0.599663
Co     0.207732    -1.981166    -0.849550
 O     2.152404    -0.778051     1.454704
 O     3.275487    -2.229262    -0.202665
 O     2.521155     0.141876    -0.906987
 O    -2.433133    -0.687372    -1.895773
 O    -2.597063    -1.760305     0.475008
 O    -1.684604     0.499776     0.225350
 P    -1.562637    -0.976844    -0.520958
 P     1.987322    -1.224537    -0.137169
 C     0.457671    -1.619738    -2.562188
 O     0.634549    -1.359845    -3.661171
 C     1.172858    -0.061385     2.094494
 C     0.279897    -0.731100     2.930598
 H     0.369310    -1.811472     3.051938
 C     1.092980     1.320553     1.932348
 H     1.793157     1.834152     1.272468
 C    -0.718559    -0.019711     3.586433
 H    -1.434871    -0.531827     4.230525
 C     0.100029     2.037029     2.592642
 H     0.015072     3.115832     2.459514
 C    -0.811655     1.358828     3.397165
Cl    -2.114341     2.236736     4.136444
 C     4.558555    -2.051948     0.264972
 C     4.830995    -2.012796     1.630674
 H     4.016052    -2.121475     2.345247
 C     5.588629    -1.944407    -0.667528
 H     5.350724    -1.996419    -1.730652
 C     6.136465    -1.795978     2.062948
 H     6.365879    -1.744308     3.128420
 C     6.891590    -1.723790    -0.238533
 H     7.701949    -1.599217    -0.958033
 C     7.157147    -1.633691     1.127943
Cl     8.770750    -1.310780     1.666592
 C     3.781898     0.684150    -0.935410
 C     4.370126     0.862925    -2.186012
 H     3.808118     0.576349    -3.077008
 C     4.461731     1.054869     0.225647
 H     3.999174     0.908332     1.201186
 C     5.662913     1.367913    -2.280004
 H     6.141427     1.498613    -3.251808
 C     5.759137     1.547212     0.134587
 H     6.318154     1.803444     1.035549
 C     6.359108     1.690207    -1.115851
Cl     7.991292     2.256254    -1.221906
 C    -3.792422    -0.524848    -1.996046
 C    -4.441858     0.584529    -1.455251
 H    -3.866410     1.367087    -0.961875
 C    -4.516256    -1.510073    -2.664907
 H    -3.980065    -2.356236    -3.098381
 C    -5.828169     0.670518    -1.521943
 H    -6.353304     1.514157    -1.072169
 C    -5.902028    -1.420025    -2.745581
 H    -6.483342    -2.192260    -3.251748
 C    -6.553351    -0.340315    -2.151158
Cl    -8.282875    -0.262449    -2.179403
 C    -3.809381    -1.351336     0.986646
 C    -4.952158    -2.051162     0.604779
 H    -4.858060    -2.882136    -0.094886
 C    -3.896940    -0.301949     1.899292
 H    -2.994660     0.216237     2.213894
 C    -6.197994    -1.659484     1.080604
 H    -7.103998    -2.174471     0.758270
 C    -5.142056     0.088810     2.382623
 H    -5.219246     0.916308     3.089618
 C    -6.289230    -0.578368     1.957203
Cl    -7.843156    -0.062133     2.521874
 C    -1.308525     1.709255    -0.280786
 C    -1.987942     2.826806     0.207861
 H    -2.776662     2.686881     0.949736
 C    -0.276063     1.864051    -1.204978
 H     0.281514     0.998563    -1.559009
 C    -1.632192     4.101250    -0.220230
 H    -2.153645     4.980649     0.160910
 C     0.079612     3.139227    -1.634650
 H     0.893875     3.269158    -2.349195
 C    -0.597341     4.253846    -1.143115
Cl    -0.148611     5.839201    -1.676854
