  90
scf done:    -3803.477212
 C    -1.037280    -2.448439    -2.180400
 H    -1.454178    -3.374440    -1.769629
 H    -1.732717    -1.904114    -2.828256
 C     0.348902    -2.362163    -2.420747
 H     0.993304    -3.215918    -2.189214
 H     0.720671    -1.734157    -3.236857
 H    -0.299230    -0.133744    -1.751242
Co    -0.153099    -1.260493    -0.798948
 C    -2.880625     0.582773    -1.469935
 C    -3.136325    -1.078398     0.881095
 C    -1.460708     1.226498     0.992845
 C     1.928703     0.661943     1.055938
 C     3.262725    -1.379162    -0.496272
 C     2.194364     0.890200    -1.846299
 P     1.763293    -0.313533    -0.531747
 P    -1.863155    -0.189266    -0.105515
 C     0.007499    -2.326501     0.580974
 O     0.118509    -2.917774     1.564959
 H    -2.258239     1.399708    -1.864662
 H    -2.890546    -0.184452    -2.254590
 C    -4.259927     1.046681    -1.118766
 C    -4.453942     2.316993    -0.561817
 H    -3.594831     2.977148    -0.429270
 C    -5.376044     0.202585    -1.303263
 C    -5.237148    -1.155862    -1.925788
 H    -4.564278    -1.802102    -1.342641
 H    -4.825350    -1.094011    -2.946375
 H    -6.211507    -1.658905    -1.989061
 C    -5.713555     2.750293    -0.158149
 H    -5.834529     3.744162     0.279148
 C    -6.635267     0.654787    -0.895860
 H    -7.498461    -0.001986    -1.033981
 C    -6.811717     1.909626    -0.319183
 H    -7.807437     2.232675    -0.006013
 C    -3.186422    -2.474897     0.813984
 C    -4.100086    -0.401296     1.642038
 C    -5.132368    -2.502083     2.241195
 C    -5.090435    -1.109872     2.316523
 C    -4.177442    -3.184204     1.490195
 H    -2.443918    -3.003301     0.213857
 H    -4.200991    -4.274759     1.429307
 H    -5.910700    -3.056025     2.771901
 H    -5.838721    -0.567828     2.899420
 H    -4.081618     0.688446     1.704167
 C    -1.148934     2.492423     0.482237
 C    -1.266384     0.993094     2.361726
 C    -0.470203     3.254289     2.673517
 C    -0.778997     1.997354     3.193587
 C    -0.660652     3.499242     1.314764
 H    -1.268571     2.699193    -0.583328
 H    -0.422970     4.480332     0.895951
 H    -0.080535     4.039527     3.324995
 H    -0.630621     1.793534     4.256718
 H    -1.488798     0.006963     2.777774
 H     1.237867     1.509543     0.945312
 H     1.470662     0.006614     1.808462
 C     3.289032     1.120923     1.473299
 C     3.809103     2.319712     0.969189
 H     3.192704     2.926415     0.302994
 C     4.078258     0.344656     2.348977
 C     3.562398    -0.933939     2.941439
 H     3.313897    -1.671795     2.163389
 H     2.645764    -0.767925     3.530657
 H     4.309753    -1.387549     3.606404
 C     5.096791     2.742713     1.285336
 H     5.481169     3.678015     0.871533
 C     5.367322     0.788285     2.662254
 H     5.980536     0.184719     3.337104
 C     5.884678     1.967767     2.133109
 H     6.897995     2.284920     2.391166
 C     3.131877    -2.763633    -0.344223
 C     4.551037    -0.825942    -0.560863
 C     5.531734    -3.016877    -0.283472
 C     5.675122    -1.639926    -0.452689
 C     4.257656    -3.578275    -0.234086
 H     2.136316    -3.206174    -0.308287
 H     4.135427    -4.656978    -0.111476
 H     6.415714    -3.653458    -0.196020
 H     6.670176    -1.190874    -0.493984
 H     4.679447     0.250017    -0.691565
 C     1.704023     2.200950    -1.800977
 C     2.891917     0.473660    -2.986089
 C     2.630186     2.660216    -3.984310
 C     3.108257     1.353044    -4.045952
 C     1.924922     3.080884    -2.857116
 H     1.133648     2.540230    -0.934223
 H     1.541681     4.102829    -2.799791
 H     2.803576     3.349642    -4.813890
 H     3.656517     1.010806    -4.927031
 H     3.273163    -0.548203    -3.045787
