  56
scf done:    -2958.551657
 C    -0.877488    -3.396972    -0.739878
 H    -1.249286    -4.010800     0.088287
 H    -1.607233    -3.253527    -1.544060
 C     0.504868    -3.404839    -1.047896
 H     1.184140    -4.031362    -0.459175
 H     0.825397    -3.263681    -2.085011
 H    -0.296847    -1.169980    -1.527113
Co    -0.010706    -1.682515    -0.153858
 C    -2.586445     0.348475    -0.995446
 C    -3.122396    -1.547796     1.116469
 C    -1.566559     0.737330     1.683148
 C     2.796178    -0.025161     0.830032
 C     2.752316    -0.952723    -1.901340
 C     1.219739     1.305581    -1.178118
 P     1.621803    -0.382729    -0.578232
 P    -1.755129    -0.562012     0.396882
 C     0.436788    -2.137019     1.471379
 O     0.748503    -2.385645     2.552555
 H    -2.785242    -0.425531    -1.752758
 H    -1.806813     1.001098    -1.416584
 C    -3.820164     1.120008    -0.650894
 C    -3.741270     2.458158    -0.242097
 H    -2.765969     2.952066    -0.214384
 C    -5.084304     0.516971    -0.697552
 H    -5.169147    -0.521570    -1.028800
 C    -4.884597     3.167574     0.118687
 H    -4.799299     4.211389     0.430702
 C    -6.229915     1.223123    -0.337591
 H    -7.205642     0.733414    -0.385184
 C    -6.134259     2.551091     0.075859
 H    -7.032117     3.106451     0.356663
 H    -3.431791    -2.316313     0.393983
 H    -2.735991    -2.062949     2.008357
 H    -3.988859    -0.929903     1.395857
 H    -2.516544     1.234729     1.930062
 H    -1.159039     0.259930     2.587049
 H    -0.841427     1.492824     1.346589
 H     3.137967    -1.013881     1.174746
 H     2.162992     0.379709     1.635609
 C     3.950561     0.879723     0.540624
 C     3.840966     2.266187     0.714521
 H     2.909544     2.683626     1.107117
 C     5.163307     0.369251     0.057696
 H     5.275907    -0.710912    -0.068862
 C     4.901168     3.115337     0.405452
 H     4.793696     4.192759     0.553229
 C     6.225599     1.215261    -0.252575
 H     7.162894     0.793870    -0.624157
 C     6.097665     2.593232    -0.083716
 H     6.930788     3.257463    -0.324778
 H     3.186132    -1.920628    -1.612375
 H     2.155935    -1.109528    -2.811499
 H     3.557157    -0.230796    -2.104456
 H     0.624281     1.207234    -2.097087
 H     0.611930     1.835063    -0.429854
 H     2.122872     1.897181    -1.388701
