 102
scf done:    -3809.271253
 C    -0.393441     0.131382     3.216958
 H    -0.299391    -0.896816     3.583849
 H     0.426856     0.781809     3.537708
 C    -1.682593     0.682351     3.021158
 H    -2.567448     0.070716     3.223671
 H    -1.839863     1.749217     3.201821
 H    -0.295518     1.672634     1.360035
Co    -0.799529     0.290419     1.246394
 C     2.372948     1.306172     0.938050
 O     2.053691    -1.340155     0.973321
 O     1.182765    -0.140281    -1.133159
 C    -2.046568     0.427516    -1.962588
 O    -3.044721     2.149366    -0.302181
 O    -0.583476     2.455642    -0.948843
 P    -1.630829     1.300949    -0.397762
 P     1.159284    -0.031906     0.515086
 C    -1.620590    -1.267504     1.128682
 O    -2.173645    -2.271265     1.183282
 H     2.144316     2.119720     0.232114
 H     1.991890     1.651268     1.910651
 C     3.844996     1.025006     1.016123
 C     4.699373     1.423045    -0.017926
 H     4.282546     1.957529    -0.875266
 C     4.401628     0.403151     2.155344
 C     3.566473     0.076101     3.358446
 H     2.702185    -0.547766     3.097640
 H     3.174328     0.994340     3.827826
 H     4.159140    -0.453149     4.117047
 C     6.066926     1.166719     0.019543
 H     6.705799     1.487130    -0.806729
 C     5.775786     0.143407     2.174679
 H     6.203942    -0.347306     3.053183
 C     6.607443     0.505372     1.117861
 H     7.676984     0.286848     1.162966
 C     1.459939    -2.508255     1.512505
 H     2.238870    -2.984861     2.129380
 H     0.633321    -2.223425     2.184589
 C     0.958848    -3.465816     0.453814
 H     0.240584    -2.935519    -0.191986
 H     1.800715    -3.764690    -0.192404
 C     0.290310    -4.696828     1.047058
 H    -0.520139    -4.375290     1.723012
 H     1.016543    -5.244110     1.674214
 C    -0.280295    -5.623971    -0.013375
 H    -1.058459    -5.109994    -0.599152
 H     0.499822    -5.960841    -0.715212
 H    -0.737860    -6.519473     0.433287
 C     2.265288     0.116005    -2.011275
 H     1.810829     0.191057    -3.013728
 H     2.692476     1.104321    -1.785588
 C     3.337373    -0.954489    -1.999482
 H     4.196212    -0.579982    -2.584229
 H     3.704027    -1.082287    -0.968597
 C     2.868784    -2.289577    -2.557933
 H     2.603581    -2.168048    -3.623479
 H     1.937102    -2.578331    -2.048464
 C     3.898263    -3.395411    -2.400857
 H     4.840998    -3.145510    -2.914015
 H     4.139941    -3.559442    -1.338173
 H     3.537030    -4.349933    -2.813260
 H    -2.570661     1.153910    -2.603559
 H    -1.073597     0.202121    -2.418294
 C    -2.876350    -0.809638    -1.774228
 C    -4.167094    -0.692679    -1.243118
 H    -4.542981     0.303987    -1.002827
 C    -2.378046    -2.086012    -2.103783
 C    -1.011378    -2.266278    -2.698876
 H    -0.752728    -3.331398    -2.774996
 H    -0.236508    -1.766871    -2.099221
 H    -0.955603    -1.839304    -3.714555
 C    -4.957646    -1.813024    -1.009418
 H    -5.956375    -1.696533    -0.581705
 C    -3.191038    -3.200709    -1.870671
 H    -2.808213    -4.193006    -2.124817
 C    -4.463579    -3.077025    -1.320540
 H    -5.068366    -3.968444    -1.138221
 C    -3.329050     3.006700     0.792775
 H    -2.631733     2.797830     1.620083
 H    -3.164691     4.048202     0.466414
 C    -4.765338     2.801171     1.224568
 H    -5.052594     3.624057     1.902205
 H    -5.403603     2.904002     0.328847
 C    -5.019189     1.456781     1.894641
 H    -4.525345     1.448038     2.880452
 H    -4.524973     0.663989     1.310036
 C    -6.495286     1.134448     2.053589
 H    -7.017082     1.903869     2.645934
 H    -6.998173     1.079411     1.074041
 H    -6.645540     0.168053     2.558252
 C    -0.862274     3.268187    -2.073665
 H    -0.732215     2.682814    -3.002962
 H    -1.909887     3.614411    -2.039402
 C     0.089931     4.444542    -2.070939
 H    -0.186563     5.114959    -2.903513
 H    -0.064057     5.017979    -1.140488
 C     1.551946     4.039527    -2.189545
 H     1.696097     3.477084    -3.129479
 H     1.778108     3.330548    -1.377629
 C     2.514603     5.213160    -2.133802
 H     2.328840     5.926420    -2.953045
 H     2.412305     5.766618    -1.186649
 H     3.561707     4.882869    -2.212079
