 100
scf done:    -3434.766478
 C    -0.711253     0.764592    -2.908628
 H    -1.223815     0.042364    -3.553684
 H    -1.242175     1.717420    -2.813758
 C     0.703387     0.748760    -2.852210
 H     1.253181     0.011089    -3.448545
 H     1.243969     1.690754    -2.715809
 H    -0.077691     1.440321    -0.695758
Co    -0.082275     0.030310    -1.140382
 C    -1.570390     1.318010     1.637663
 C    -3.231314     1.165477    -0.704180
 C    -2.763230    -1.195202     0.903114
 C     1.546588    -1.262070     1.573556
 C     3.172707    -0.940389    -0.791188
 C     2.305924     1.406381     0.921885
 P     1.712949    -0.159446     0.093387
 P    -1.831363     0.254559     0.137942
 C    -0.101361    -1.624444    -1.702223
 O    -0.046720    -2.682301    -2.157162
 H    -2.474106     1.272777     2.267783
 H    -0.768534     0.833904     2.219705
 C    -1.197801     2.770367     1.376537
 H    -2.012906     3.276972     0.833969
 H    -0.331316     2.804531     0.699021
 C    -0.891706     3.529615     2.658321
 H    -1.753632     3.529054     3.344921
 H    -0.043515     3.075868     3.197083
 H    -0.630114     4.578810     2.452433
 H    -2.705349     2.015909    -1.175003
 C    -4.333622     1.729173     0.194625
 H    -3.917216     2.343070     1.006729
 H    -4.878137     0.899211     0.680033
 C    -5.322121     2.567479    -0.615193
 H    -6.121496     2.946519     0.042624
 H    -4.795253     3.456660    -1.006476
 C    -5.917289     1.784900    -1.779984
 H    -6.581525     2.431031    -2.376760
 H    -6.551367     0.971827    -1.381543
 C    -4.826657     1.178412    -2.655325
 H    -4.263007     1.984990    -3.157861
 H    -5.271844     0.565581    -3.455980
 C    -3.860974     0.338495    -1.826964
 H    -4.421179    -0.503408    -1.382626
 H    -3.075942    -0.099356    -2.458560
 H    -3.809476    -0.846732     0.987813
 C    -2.305112    -1.582833     2.311701
 H    -2.373481    -0.726272     2.997072
 H    -1.243106    -1.875234     2.283147
 C    -3.129886    -2.737356     2.876211
 H    -2.747508    -3.015922     3.872181
 H    -4.168844    -2.392479     3.029108
 C    -3.138174    -3.946248     1.949508
 H    -3.775727    -4.743998     2.364039
 H    -2.116693    -4.363638     1.888335
 C    -3.600352    -3.556874     0.551208
 H    -4.658763    -3.240027     0.588972
 H    -3.559369    -4.425382    -0.125778
 C    -2.748780    -2.423102    -0.008459
 H    -1.712565    -2.780689    -0.110887
 H    -3.071606    -2.162404    -1.026435
 H     2.495715    -1.293054     2.132150
 H     0.811794    -0.776596     2.238746
 C     1.084765    -2.674943     1.243067
 H     1.737813    -3.121518     0.475350
 H     0.091083    -2.616243     0.776118
 C     1.037487    -3.585012     2.459771
 H     2.034479    -3.698844     2.914922
 H     0.367769    -3.182153     3.237009
 H     0.673847    -4.589956     2.195959
 H     2.666198    -1.695670    -1.421247
 C     4.218541    -1.679275     0.050131
 H     3.746423    -2.404462     0.728304
 H     4.759786    -0.961717     0.688726
 C     5.217520    -2.410119    -0.845634
 H     5.971568    -2.922596    -0.225916
 H     4.683326    -3.201596    -1.401972
 C     5.891656    -1.469235    -1.836813
 H     6.569134    -2.030787    -2.500470
 H     6.524329    -0.752387    -1.281944
 C     4.860768    -0.696211    -2.649969
 H     4.304641    -1.394871    -3.300744
 H     5.358281     0.023373    -3.320437
 C     3.873479     0.031622    -1.744043
 H     4.425653     0.781056    -1.150891
 H     3.135589     0.581408    -2.341684
 H     1.459123     1.599506     1.609853
 C     2.390705     2.615660    -0.013156
 H     1.474088     2.676059    -0.618925
 H     3.222991     2.478517    -0.722103
 C     2.613372     3.904811     0.770826
 H     2.691569     4.757620     0.077105
 H     1.730156     4.100365     1.404696
 C     3.854016     3.818386     1.651995
 H     3.974081     4.739716     2.244910
 H     4.750060     3.743795     1.009145
 C     3.795684     2.600561     2.566059
 H     2.968098     2.726108     3.288165
 H     4.718733     2.520677     3.163345
 C     3.572480     1.313104     1.775471
 H     4.442396     1.142438     1.118379
 H     3.528429     0.457105     2.465541
