  76
scf done:    -3817.055762
 C     0.643960    -3.249389     1.128859
 H     1.275944    -3.927549     0.544185
 H     1.017321    -3.067187     2.141236
 C    -0.745082    -3.229904     0.866858
 H    -1.148426    -3.883100     0.085888
 H    -1.456758    -3.028187     1.673287
 H    -0.161728    -1.053963     1.540651
Co     0.107239    -1.546673     0.178719
 C     1.814978     0.823688     1.934465
 C     3.470417    -0.704803     0.183878
 C     1.707298     1.197003    -0.903951
 C    -1.639188     0.564508    -1.860609
 C    -3.245870    -1.039148    -0.156530
 C    -1.752067     1.124728     0.980398
 P    -1.582215    -0.263928    -0.208717
 P     1.732673    -0.135346     0.364202
 C     0.403997    -2.102972    -1.456889
 O     0.577541    -2.457522    -2.538848
 H     2.606282     1.587995     1.853172
 H     0.849684     1.348558     2.027364
 C     2.039752    -0.055210     3.155657
 H     3.006738    -0.577900     3.060034
 H     1.266569    -0.840984     3.168053
 C     1.999286     0.736579     4.452892
 H     2.779351     1.514431     4.475370
 H     1.027296     1.240668     4.578011
 H     2.154214     0.084854     5.326010
 C     4.530210     0.211027     0.116181
 H     4.327415     1.285338     0.139116
 C     3.752314    -2.071134     0.121216
 H     2.922998    -2.778058     0.165677
 C     5.843975    -0.227150    -0.000903
 H     6.680927     0.471171    -0.058587
 C     5.064083    -2.526745     0.002002
 H     5.299481    -3.591234    -0.049903
 C     6.092381    -1.596113    -0.054729
 F     7.348504    -2.019052    -0.169530
 C     1.915365     0.834381    -2.244468
 H     2.176499    -0.197063    -2.493849
 C     1.381608     2.526527    -0.617100
 H     1.220445     2.847138     0.412623
 C     1.776302     1.759656    -3.271114
 H     1.928209     1.483132    -4.315921
 C     1.229064     3.465909    -1.638174
 H     0.965177     4.503629    -1.425094
 C     1.417300     3.066677    -2.953550
 F     1.253203     3.952302    -3.933584
 H    -0.795944     1.274547    -1.873088
 H    -1.354698    -0.221360    -2.579964
 C    -2.934582     1.233429    -2.298932
 H    -3.304281     1.910242    -1.510593
 H    -3.717407     0.466698    -2.414578
 C    -2.760694     2.003414    -3.599763
 H    -2.004062     2.798725    -3.497990
 H    -2.424920     1.339249    -4.412079
 H    -3.702384     2.473984    -3.920501
 C    -4.355381    -0.456246     0.465492
 H    -4.248620     0.490988     0.998287
 C    -3.417040    -2.249005    -0.842466
 H    -2.556629    -2.719806    -1.323382
 C    -5.606793    -1.066598     0.413349
 H    -6.479115    -0.625484     0.899075
 C    -4.663173    -2.861817    -0.916785
 H    -4.808892    -3.803044    -1.449816
 C    -5.744239    -2.262003    -0.280100
 F    -6.937495    -2.848456    -0.335547
 C    -1.894412     0.813079     2.342335
 H    -1.957113    -0.233760     2.649885
 C    -1.649071     2.470634     0.616080
 H    -1.529513     2.752354    -0.430164
 C    -1.934993     1.808284     3.310951
 H    -2.046797     1.572423     4.370782
 C    -1.671064     3.481932     1.577559
 H    -1.582025     4.534159     1.301180
 C    -1.813345     3.137210     2.913904
 F    -1.834175     4.094681     3.836734
