  96
scf done:    -4278.810941
 C     0.448111     2.371208    -2.634604
 H     0.091348     2.286803    -3.666991
 H    -0.011643     3.190541    -2.072357
 C     1.768858     1.979446    -2.316280
 H     2.418863     1.593416    -3.110681
 H     2.305553     2.487754    -1.508672
 H     0.297621     1.478940    -0.426013
Co     0.440339     0.626933    -1.630869
 C    -2.579629     1.887197    -1.091081
 C    -2.565005    -1.006484    -1.794495
 C    -1.631407    -0.145504     0.883145
 C     1.245576    -2.219270     0.035178
 C     3.381069    -0.974780    -1.482737
 C     2.450579     0.115745     1.156221
 P     1.852953    -0.520294    -0.490141
 P    -1.561965     0.327131    -0.931469
 C     0.376576    -0.435878    -3.014682
 O     0.290353    -1.175987    -3.893931
 H    -2.093386     2.401218    -1.930814
 H    -2.348654     2.477623    -0.191993
 C    -4.055264     1.811990    -1.330264
 C    -4.982889     1.899939    -0.285496
 H    -4.629147     2.034532     0.736584
 C    -4.542674     1.675213    -2.638599
 H    -3.836236     1.643266    -3.473360
 C    -6.350774     1.820526    -0.535369
 H    -7.053545     1.888650     0.298567
 C    -5.910600     1.593071    -2.892200
 H    -6.266395     1.484333    -3.919524
 C    -6.821741     1.657516    -1.837932
 H    -7.894760     1.594379    -2.033229
 H    -3.037136    -0.510022    -2.655533
 H    -1.804105    -1.681474    -2.211183
 C    -3.566454    -1.809325    -1.022459
 C    -3.155040    -2.953761    -0.323110
 H    -2.106293    -3.262305    -0.364935
 C    -4.925089    -1.470564    -0.984916
 H    -5.281327    -0.600245    -1.535929
 C    -4.053748    -3.720641     0.415272
 H    -3.736039    -4.611924     0.959158
 C    -5.838211    -2.227442    -0.256581
 H    -6.896382    -1.961858    -0.226328
 C    -5.390520    -3.341365     0.443024
 F    -6.260146    -4.067563     1.144434
 H    -1.668833    -1.244026     0.906103
 H    -0.641957     0.154949     1.252817
 C    -2.690578     0.421906     1.776349
 C    -2.522838     1.687748     2.355131
 H    -1.609437     2.255569     2.156326
 C    -3.852974    -0.294927     2.084962
 H    -3.999794    -1.289830     1.663897
 C    -3.490726     2.238711     3.191674
 H    -3.364255     3.223423     3.644789
 C    -4.829739     0.237737     2.920836
 H    -5.737320    -0.319078     3.160474
 C    -4.640040     1.504349     3.459858
 F    -5.571679     2.021158     4.259345
 H     0.805744    -2.645594    -0.879990
 H     0.412840    -2.023757     0.727444
 C     2.239661    -3.159960     0.637406
 C     2.575357    -3.093742     1.997543
 H     2.055796    -2.384579     2.646239
 C     2.894456    -4.112469    -0.156517
 H     2.622948    -4.209636    -1.211565
 C     3.558808    -3.920761     2.534885
 H     3.805656    -3.847881     3.596759
 C     3.878114    -4.942505     0.377903
 H     4.376753    -5.673386    -0.262951
 C     4.222361    -4.842420     1.724775
 H     4.995021    -5.489673     2.145633
 H     3.322506    -2.060753    -1.647768
 H     3.225966    -0.492943    -2.455600
 C     4.736238    -0.617274    -0.956090
 C     5.426435     0.482814    -1.480087
 H     4.957429     1.085994    -2.261402
 C     5.355316    -1.369180     0.052389
 H     4.847101    -2.241617     0.469194
 C     6.693547     0.830823    -1.020166
 H     7.234871     1.686818    -1.426849
 C     6.618586    -1.029548     0.530544
 H     7.106469    -1.611989     1.314100
 C     7.273809     0.069509    -0.013384
 F     8.485101     0.395134     0.436846
 H     1.593721    -0.063363     1.826703
 H     3.272095    -0.526987     1.503490
 C     2.853885     1.559053     1.223764
 C     4.203703     1.926896     1.201795
 H     4.970797     1.152866     1.158442
 C     1.897204     2.577292     1.330542
 H     0.838666     2.316995     1.377254
 C     4.592520     3.263229     1.240056
 H     5.645361     3.549846     1.217680
 C     2.265444     3.918541     1.368773
 H     1.522849     4.714587     1.445765
 C     3.614619     4.246140     1.311285
 F     3.976115     5.528579     1.343571
