  90
scf done:    -4200.248895
 C    -0.970956    -1.852028    -2.793120
 H    -1.423148    -2.837737    -2.638455
 H    -1.614876    -1.155264    -3.340233
 C     0.429097    -1.747009    -2.916485
 H     1.047253    -2.647752    -2.851603
 H     0.861341    -0.956601    -3.538581
 H    -0.241161     0.281432    -1.788744
Co    -0.173179    -1.039575    -1.118244
 C    -2.836497     0.968834    -1.523533
 C    -3.254901    -1.171962     0.371095
 C    -1.584054     1.013255     1.103442
 C     1.780364     0.343205     1.276670
 C     3.206590    -1.312137    -0.618794
 C     2.271483     1.235693    -1.459120
 P     1.725703    -0.230445    -0.504113
 P    -1.915711    -0.113346    -0.308879
 C    -0.116075    -2.401230    -0.019088
 O    -0.075251    -3.207921     0.804127
 H    -2.187299     1.842679    -1.683372
 H    -2.798928     0.399858    -2.461155
 C    -4.233591     1.364811    -1.160212
 C    -4.458507     2.478630    -0.341352
 H    -3.608571     3.080718    -0.014796
 C    -5.338093     0.602085    -1.597083
 C    -5.165351    -0.579172    -2.506651
 H    -4.528184    -1.352732    -2.052596
 H    -4.695213    -0.290374    -3.460856
 H    -6.135102    -1.039469    -2.739095
 C    -5.739217     2.827532     0.077556
 H    -5.884889     3.698485     0.720791
 C    -6.618600     0.968332    -1.169907
 H    -7.473368     0.374032    -1.503975
 C    -6.826901     2.061241    -0.332938
 H    -7.838914     2.319315    -0.012077
 C    -4.268039    -0.663065     1.197825
 H    -4.252142     0.384863     1.502982
 C    -3.311940    -2.517652    -0.008746
 H    -2.535719    -2.918432    -0.662461
 C    -5.308281    -1.475388     1.634543
 H    -6.104823    -1.088637     2.272286
 C    -4.347537    -3.343723     0.419449
 H    -4.399688    -4.394752     0.130582
 C    -5.334876    -2.807394     1.235902
 F    -6.330066    -3.587002     1.649591
 C    -1.492682     0.482445     2.398449
 H    -1.748002    -0.566030     2.572343
 C    -1.227590     2.353544     0.912079
 H    -1.264194     2.795328    -0.085735
 C    -1.070641     1.262063     3.470203
 H    -0.996928     0.854021     4.479829
 C    -0.801441     3.148905     1.974308
 H    -0.526630     4.195822     1.832443
 C    -0.726787     2.590305     3.244477
 F    -0.322133     3.341691     4.263181
 H     1.120069     1.220837     1.317211
 H     1.249022    -0.449702     1.819445
 C     3.114347     0.635936     1.884689
 C     3.699439     1.897475     1.717911
 H     3.148105     2.672543     1.181907
 C     3.817211    -0.358917     2.597702
 C     3.223948    -1.716511     2.836851
 H     2.990818    -2.233594     1.893670
 H     2.282956    -1.652560     3.407481
 H     3.915788    -2.352486     3.405362
 C     4.971742     2.177960     2.207415
 H     5.408347     3.168188     2.057826
 C     5.091967    -0.058062     3.088680
 H     5.639202    -0.829719     3.636995
 C     5.676562     1.190176     2.891214
 H     6.676613     1.393541     3.281500
 C     4.503176    -0.798049    -0.453778
 H     4.655119     0.272888    -0.308436
 C     3.054658    -2.688852    -0.817499
 H     2.056679    -3.102202    -0.963064
 C     5.611822    -1.636765    -0.466827
 H     6.621814    -1.247191    -0.329404
 C     4.154760    -3.542363    -0.829197
 H     4.044041    -4.617501    -0.979671
 C     5.421263    -3.002107    -0.647989
 F     6.479106    -3.808495    -0.655739
 C     3.044160     1.079381    -2.616255
 H     3.412163     0.089441    -2.894545
 C     1.802200     2.515494    -1.139309
 H     1.176067     2.664208    -0.257755
 C     3.358126     2.169979    -3.423497
 H     3.962357     2.057215    -4.325417
 C     2.111168     3.616076    -1.932403
 H     1.757263     4.618618    -1.685018
 C     2.889822     3.428137    -3.068472
 F     3.190053     4.476342    -3.831521
