  88
scf done:    -3974.185946
 C    -0.739361    -4.277385    -0.091555
 H    -1.389107    -4.759386     0.647619
 H    -1.127276    -4.325263    -1.114054
 C     0.660968    -4.258536     0.118601
 H     1.078008    -4.724255     1.018818
 H     1.332270    -4.294387    -0.746351
 H     0.107691    -2.245588    -1.030834
Co    -0.120594    -2.436631     0.423071
 C    -1.806891    -0.011664    -1.364013
 C    -3.353031    -2.259208    -0.403723
 C    -2.505431    -0.163053     1.449157
 C     1.532327     0.110140     1.883530
 C     3.203528    -2.072899     0.827854
 C     1.882198    -0.122893    -1.019226
 P     1.602675    -1.141442     0.525466
 P    -1.855757    -1.222785     0.025797
 C    -0.362743    -2.593297     2.146366
 O    -0.518811    -2.643125     3.287012
 H    -2.773451     0.513074    -1.414918
 H    -1.077535     0.759935    -1.065395
 C    -1.439751    -0.585090    -2.724363
 H    -2.218669    -1.293935    -3.053991
 H    -0.523997    -1.192173    -2.633669
 C    -1.254738     0.499808    -3.773916
 H    -2.167205     1.105966    -3.891950
 H    -0.440168     1.186830    -3.492616
 H    -1.005562     0.072178    -4.756717
 H    -3.069005    -2.794627    -1.322362
 H    -3.400130    -3.020396     0.388799
 C    -4.660288    -1.550012    -0.553033
 C    -5.566031    -1.486129     0.515959
 H    -5.336187    -2.012466     1.446359
 C    -5.011512    -0.898295    -1.744551
 H    -4.343452    -0.953806    -2.606729
 C    -6.760871    -0.776561     0.420267
 H    -7.465513    -0.726544     1.252156
 C    -6.200319    -0.183328    -1.859610
 H    -6.474747     0.324417    -2.785987
 C    -7.059965    -0.123871    -0.768871
 F    -8.198002     0.559747    -0.871494
 H    -3.456313    -0.614808     1.767761
 H    -1.795420    -0.307010     2.274318
 C    -2.694533     1.300679     1.186652
 C    -1.709018     2.224801     1.555545
 H    -0.824578     1.879568     2.095331
 C    -3.842288     1.788562     0.545261
 H    -4.638097     1.096351     0.263460
 C    -1.836716     3.582880     1.270620
 H    -1.069845     4.303094     1.562625
 C    -3.989502     3.141576     0.255871
 H    -4.882186     3.522454    -0.243576
 C    -2.977226     4.024569     0.613477
 F    -3.109627     5.319941     0.331875
 H     0.782458     0.833248     1.524374
 H     1.053977    -0.407424     2.731720
 C     2.774923     0.845947     2.365653
 H     3.359207     1.220996     1.512985
 H     3.426633     0.137213     2.902777
 C     2.421291     2.003316     3.287364
 H     1.826163     2.760048     2.751364
 H     1.830867     1.663706     4.153838
 H     3.322683     2.504638     3.671005
 H     3.308545    -2.118384     1.922965
 H     2.970305    -3.094406     0.499492
 C     4.471274    -1.614331     0.175068
 C     4.752122    -1.997200    -1.145000
 H     4.047690    -2.642777    -1.677049
 C     5.417192    -0.824009     0.839782
 H     5.240135    -0.526613     1.874457
 C     5.914489    -1.586672    -1.793026
 H     6.134360    -1.884821    -2.819652
 C     6.587630    -0.407321     0.211647
 H     7.325903     0.207383     0.729668
 C     6.819635    -0.788018    -1.104221
 F     7.935813    -0.391024    -1.712851
 H     2.489180    -0.746397    -1.691588
 H     0.882605    -0.077634    -1.466774
 C     2.448607     1.257779    -0.892826
 C     1.615550     2.331740    -0.547365
 H     0.543134     2.168846    -0.409733
 C     3.807751     1.521434    -1.102595
 H     4.474024     0.709474    -1.396965
 C     2.121204     3.616522    -0.370454
 H     1.473928     4.453199    -0.100951
 C     4.331019     2.800034    -0.931884
 H     5.391214     3.006287    -1.089369
 C     3.481309     3.832710    -0.554731
 F     3.976639     5.057478    -0.382072
