  72
scf done:    -2968.148192
 C    -1.216321     2.676827     1.144598
 H    -1.794862     3.337812     0.490325
 H    -1.780770     2.317079     2.011101
 C     0.178441     2.875622     1.263592
 H     0.646184     3.686467     0.696132
 H     0.676129     2.677878     2.217982
 H    -0.280002     0.548663     1.516979
Co    -0.215805     1.205087     0.199672
 C    -1.803267    -1.715001     0.981165
 C    -3.529390     0.503522     0.316741
 C    -2.264607    -0.998399    -1.791942
 C     1.572475    -1.268486    -1.149989
 C     3.209622     1.026335    -0.430412
 C     2.037974    -0.823370     1.700985
 P     1.668594     0.094807     0.109731
 P    -1.850358    -0.217683    -0.113189
 C    -0.054442     2.010576    -1.345947
 O     0.113824     2.595844    -2.324687
 H    -2.622008    -2.397655     0.701597
 H    -0.866971    -2.242880     0.732062
 C    -1.846313    -1.439278     2.478054
 H    -2.823049    -1.005455     2.750305
 H    -1.101490    -0.663546     2.721950
 C    -1.591162    -2.687557     3.308457
 H    -2.329956    -3.476504     3.093546
 H    -0.593338    -3.106379     3.097529
 H    -1.638833    -2.470814     4.386487
 H    -3.335366     0.997521     1.282304
 C    -3.924861     1.580211    -0.688565
 H    -4.775195     2.167458    -0.306952
 H    -3.094561     2.271810    -0.886274
 H    -4.240493     1.137974    -1.646967
 C    -4.655880    -0.505099     0.505964
 H    -4.456037    -1.222532     1.314146
 H    -5.589553     0.022241     0.761422
 H    -4.857332    -1.080223    -0.412337
 H    -3.367204    -1.037360    -1.797511
 C    -1.827228    -0.104398    -2.944911
 H    -2.227352    -0.490261    -3.896818
 H    -2.169384     0.932621    -2.832022
 H    -0.731048    -0.072774    -3.036100
 C    -1.772652    -2.426542    -2.005042
 H    -2.177227    -3.132644    -1.267490
 H    -2.091107    -2.777590    -3.000160
 H    -0.676654    -2.496115    -1.976468
 H     0.956540    -2.045765    -0.665409
 H     0.928070    -0.844333    -1.935391
 C     2.788800    -1.905501    -1.810945
 H     3.453729    -2.356815    -1.059066
 H     3.383718    -1.128847    -2.318415
 C     2.381655    -2.965380    -2.825194
 H     1.817967    -3.781920    -2.345510
 H     1.736172    -2.538987    -3.609781
 H     3.258360    -3.411216    -3.319248
 H     3.083391     1.027714    -1.529623
 C     3.205100     2.481804     0.021647
 H     4.108201     2.989304    -0.354802
 H     2.327936     3.019584    -0.353266
 H     3.204351     2.570233     1.118432
 C     4.553466     0.380708    -0.104181
 H     4.629069    -0.662759    -0.431145
 H     5.361428     0.942373    -0.601069
 H     4.759138     0.413962     0.976117
 H     1.028463    -1.215016     1.914313
 C     2.983951    -2.017338     1.664357
 H     2.972195    -2.517738     2.646929
 H     2.679545    -2.766201     0.919450
 H     4.024526    -1.732996     1.459138
 C     2.379301     0.148853     2.823747
 H     1.646661     0.966317     2.868887
 H     2.373140    -0.371343     3.795051
 H     3.379507     0.590039     2.694777
