  92
scf done:    -3878.225337
 C     1.042092    -3.204600    -0.041779
 H     2.010020    -3.399402    -0.513514
 H     1.043285    -3.321786     1.045967
 C    -0.152576    -3.385378    -0.764645
 H    -0.113404    -3.742341    -1.798964
 H    -1.077293    -3.636997    -0.237467
 H    -0.488659    -1.455897     0.666123
Co     0.276465    -1.411306    -0.599296
 C     0.810027     0.507763     2.172381
 O     2.922618    -0.505583     1.087412
 O     1.694868     1.365658    -0.240088
 C    -1.842382     0.169555    -2.753138
 O    -2.946287    -1.205521    -0.829136
 O    -1.674136     0.927298    -0.103626
 P    -1.488327    -0.434872    -1.064811
 P     1.395644    -0.075886     0.553971
 C     1.075320    -1.264094    -2.155157
 O     1.550244    -1.157344    -3.195531
 H     1.516871     1.274079     2.529693
 H    -0.152212     1.006211     1.968322
 C     0.651030    -0.601155     3.203427
 H     1.619639    -1.110570     3.332713
 H    -0.047073    -1.362200     2.814850
 C     0.158774    -0.073909     4.541766
 H     0.862822     0.660087     4.964731
 H    -0.816785     0.427726     4.439746
 H     0.041581    -0.885563     5.275916
 C     3.804772    -1.202190     0.312877
 C     4.043946    -0.851727    -1.014514
 H     3.515106    -0.000020    -1.447139
 C     4.481210    -2.274886     0.896377
 H     4.274461    -2.527793     1.937539
 C     4.939788    -1.591805    -1.796630
 C     5.151789    -1.220527    -3.234996
 H     4.196948    -1.235065    -3.783281
 H     5.561232    -0.201779    -3.326132
 H     5.847003    -1.910912    -3.732301
 C     5.385172    -2.999681     0.128782
 H     5.916269    -3.843968     0.575115
 C     5.608228    -2.669288    -1.209184
 H     6.311090    -3.256537    -1.805388
 C     2.241820     2.476511     0.348901
 C     3.614263     2.552894     0.575247
 H     4.245989     1.705419     0.302160
 C     1.403045     3.539321     0.689770
 H     0.329841     3.448579     0.513802
 C     4.175982     3.700006     1.148714
 C     5.658066     3.776364     1.375845
 H     6.026590     2.884986     1.906253
 H     6.201770     3.829142     0.418618
 H     5.930927     4.662783     1.965184
 C     1.958134     4.681493     1.257311
 H     1.310400     5.518526     1.529099
 C     3.331514     4.762450     1.487047
 H     3.755522     5.663754     1.937124
 H    -1.187044     1.049919    -2.879835
 H    -1.409712    -0.609815    -3.403994
 C    -3.273961     0.467584    -3.183770
 H    -3.711584     1.247335    -2.543854
 H    -3.885005    -0.433874    -3.024593
 C    -3.342529     0.904804    -4.638631
 H    -2.766983     1.829523    -4.805365
 H    -2.933026     0.134782    -5.312367
 H    -4.380891     1.100226    -4.946577
 C    -3.258691    -1.991116     0.240569
 C    -2.991018    -1.597515     1.553283
 H    -2.497268    -0.641402     1.735842
 C    -3.906280    -3.199943    -0.017765
 H    -4.103658    -3.480946    -1.053487
 C    -3.354931    -2.418158     2.627457
 C    -3.027113    -2.010802     4.034290
 H    -2.006102    -2.326635     4.305335
 H    -3.070891    -0.919269     4.159814
 H    -3.715928    -2.469337     4.757926
 C    -4.277746    -4.011465     1.048540
 H    -4.786858    -4.958404     0.853563
 C    -4.002945    -3.628389     2.360731
 H    -4.298465    -4.275651     3.190296
 C    -2.602710     1.911937    -0.310336
 C    -3.911005     1.751202     0.141520
 H    -4.188889     0.821487     0.642038
 C    -2.209456     3.082931    -0.959758
 H    -1.177701     3.182128    -1.302525
 C    -4.861321     2.756201    -0.068821
 C    -6.265816     2.582911     0.431699
 H    -6.627306     1.557644     0.263784
 H    -6.321783     2.773101     1.516314
 H    -6.958853     3.278126    -0.062413
 C    -3.152276     4.084857    -1.170898
 H    -2.859317     5.002492    -1.686632
 C    -4.466834     3.922116    -0.735891
 H    -5.199743     4.713021    -0.914437
