 100
scf done:    -4182.690962
 C    -0.796790    -1.984691    -2.972757
 H    -1.279058    -2.967662    -2.922248
 H    -1.390239    -1.224765    -3.488935
 C     0.607840    -1.895528    -3.000335
 H     1.205085    -2.812073    -2.979508
 H     1.097935    -1.055477    -3.497349
 H    -0.203408     0.044214    -1.777270
Co    -0.097767    -1.317409    -1.192819
 C    -3.119297     0.022402    -1.734485
 C    -3.080802    -1.636330     0.532316
 C    -1.688441     0.911226     0.730070
 C     1.653568    -0.628921     1.584819
 C     3.302399    -1.184959    -0.677641
 C     1.932522     1.358884    -0.554376
 P     1.663470    -0.433174    -0.280795
 P    -1.933325    -0.517992    -0.395118
 C     0.069661    -2.826152    -0.325319
 O     0.238167    -3.782099     0.298180
 H    -3.211257    -0.892758    -2.336628
 H    -2.570802     0.760744    -2.331258
 C    -4.476714     0.507032    -1.336047
 C    -4.720643     1.855020    -1.042455
 H    -3.898530     2.567716    -1.115260
 C    -5.545306    -0.394244    -1.244971
 H    -5.374076    -1.449971    -1.471673
 C    -5.989277     2.286636    -0.665317
 H    -6.158127     3.344148    -0.445897
 C    -6.815228     0.033568    -0.863398
 H    -7.632642    -0.689088    -0.799317
 C    -7.043311     1.377511    -0.571462
 H    -8.040056     1.716926    -0.278630
 C    -3.010065    -2.993963     0.209747
 H    -2.244895    -3.314622    -0.498325
 C    -4.115738    -1.219244     1.403734
 O    -4.228331     0.094745     1.640819
 C    -5.232894     0.579561     2.483750
 H    -6.236319     0.325041     2.104401
 H    -5.124417     1.671060     2.490004
 H    -5.119967     0.198531     3.514195
 C    -3.888676    -3.934301     0.744011
 H    -3.799193    -4.986371     0.467149
 C    -4.981074    -2.164542     1.968756
 H    -5.766030    -1.844242     2.653673
 C    -4.865890    -3.512419     1.638264
 H    -5.557079    -4.232916     2.082815
 C    -1.559465     0.686177     2.103582
 H    -1.672754    -0.333764     2.480809
 C    -1.499153     2.221945     0.253811
 O    -1.528818     2.393962    -1.083260
 C    -1.188999     3.637033    -1.636605
 H    -1.924891     4.417424    -1.372682
 H    -1.194301     3.500471    -2.725269
 H    -0.183365     3.954473    -1.319411
 C    -1.306738     1.722921     2.998345
 H    -1.212836     1.513971     4.066003
 C    -1.294476     3.277176     1.150998
 H    -1.176159     4.294743     0.779377
 C    -1.197763     3.026081     2.516579
 H    -1.024203     3.857134     3.204581
 H     1.324791    -1.673006     1.698566
 H     0.820644    -0.008653     1.945976
 C     2.900601    -0.407831     2.384225
 C     3.109845     0.763112     3.124179
 H     2.340815     1.538088     3.135453
 C     3.888218    -1.401926     2.432359
 H     3.737245    -2.333306     1.881315
 C     4.276129     0.948822     3.862970
 H     4.413030     1.870219     4.434769
 C     5.056750    -1.218919     3.167581
 H     5.811713    -2.008824     3.184593
 C     5.259766    -0.039167     3.882705
 H     6.173953     0.103860     4.464129
 C     3.326706    -2.503827    -1.129130
 H     2.376509    -3.008189    -1.299269
 C     4.538611    -0.537658    -0.450860
 O     4.491102     0.717013     0.020175
 C     5.663563     1.378822     0.397471
 H     6.209934     0.818322     1.174253
 H     5.347268     2.344631     0.810789
 H     6.329032     1.557381    -0.465723
 C     4.521636    -3.185977    -1.358856
 H     4.502462    -4.221441    -1.704205
 C     5.740487    -1.208619    -0.701035
 H     6.692638    -0.707228    -0.527076
 C     5.727841    -2.527866    -1.150001
 H     6.676021    -3.040270    -1.331638
 C     1.705419     2.314618     0.427660
 H     1.297219     2.010950     1.389993
 C     2.413902     1.788670    -1.809121
 O     2.601459     0.821137    -2.724413
 C     3.193731     1.127645    -3.953106
 H     2.577573     1.829507    -4.542160
 H     3.277841     0.181276    -4.501839
 H     4.201862     1.558155    -3.821489
 C     1.993738     3.665337     0.213092
 H     1.814255     4.390595     1.009440
 C     2.701836     3.135953    -2.034996
 H     3.092766     3.463904    -2.998469
 C     2.503437     4.069369    -1.014231
 H     2.744121     5.120001    -1.195059
