  90
scf done:    -5641.359227
 C    -0.391071    -0.832208    -3.823274
 H    -0.769214    -1.800404    -4.170339
 H    -1.006888     0.015282    -4.138487
 C     1.002011    -0.651075    -3.645338
 H     1.685431    -1.479178    -3.861454
 H     1.447700     0.332538    -3.822254
 H    -0.097597     0.691117    -2.037511
Co     0.067837    -0.765434    -1.864433
 C    -3.140015     0.007389    -2.168210
 C    -2.627340    -1.414292     0.307671
 C    -1.776486     1.297209     0.034509
 C     1.265873    -0.809831     1.321087
 C     3.311084    -0.609166    -0.723107
 C     1.733339     1.663758    -0.192089
 P     1.558722    -0.150092    -0.417611
 P    -1.797447    -0.293337    -0.897830
 C     0.238867    -2.502612    -1.754645
 O     0.384372    -3.646105    -1.763478
 H    -2.775527     0.873749    -2.740387
 H    -3.061213    -0.856087    -2.841588
 C    -4.534354     0.221565    -1.675590
 C    -4.928468     1.490833    -1.232463
 H    -4.221999     2.320864    -1.302969
 C    -5.449411    -0.850511    -1.598655
 C    -5.083976    -2.228834    -2.067023
 H    -4.232438    -2.636496    -1.499627
 H    -4.797398    -2.235330    -3.131139
 H    -5.928028    -2.920834    -1.944679
 C    -6.190462     1.708371    -0.687597
 H    -6.470981     2.705703    -0.341086
 C    -6.717152    -0.611362    -1.057524
 H    -7.426230    -1.441199    -0.993380
 C    -7.089177     0.647913    -0.593908
 H    -8.084079     0.801938    -0.169411
 C    -2.123333    -2.703018     0.512133
 H    -1.227006    -3.026343    -0.015045
 C    -3.789032    -1.040462     1.005515
 H    -4.209807    -0.041366     0.884796
 C    -2.752596    -3.604601     1.367146
 H    -2.351589    -4.608467     1.514372
 C    -4.430361    -1.929307     1.860702
 H    -5.337615    -1.633482     2.389436
 C    -3.910084    -3.211749     2.034463
Cl    -4.708187    -4.321696     3.093924
 C    -1.571887     2.489491    -0.675845
 H    -1.433329     2.461200    -1.759504
 C    -1.877484     1.370887     1.427221
 H    -2.013485     0.462384     2.016744
 C    -1.513570     3.717500    -0.030331
 H    -1.342337     4.638533    -0.589426
 C    -1.812365     2.594611     2.092663
 H    -1.892395     2.642668     3.179932
 C    -1.639768     3.762938     1.358202
Cl    -1.525236     5.283907     2.176715
 H     0.613531    -0.076641     1.817858
 H     0.644264    -1.700718     1.166334
 C     2.484636    -1.127866     2.132112
 C     3.082178    -0.156686     2.942911
 H     2.616055     0.826190     3.034710
 C     3.083197    -2.403093     2.038003
 C     2.449546    -3.506224     1.242065
 H     2.311126    -3.233067     0.186728
 H     1.454263    -3.767656     1.638775
 H     3.067120    -4.414009     1.267995
 C     4.270450    -0.407166     3.623729
 H     4.717171     0.371820     4.245943
 C     4.280199    -2.636050     2.721447
 H     4.749859    -3.619802     2.638207
 C     4.881744    -1.651213     3.500928
 H     5.820125    -1.861435     4.019266
 C     3.609511    -1.705388    -1.536694
 H     2.803706    -2.227786    -2.053911
 C     4.364503     0.068215    -0.094162
 H     4.158251     0.938429     0.531280
 C     4.920978    -2.145292    -1.696226
 H     5.150954    -3.005018    -2.327267
 C     5.678554    -0.357382    -0.244117
 H     6.495761     0.162616     0.257589
 C     5.947757    -1.471509    -1.039171
Cl     7.580832    -2.016708    -1.218971
 C     1.489413     2.359385     0.991928
 H     1.180445     1.833825     1.894671
 C     2.089260     2.398665    -1.333719
 H     2.275692     1.874318    -2.274149
 C     1.591114     3.748866     1.048192
 H     1.369460     4.287827     1.970059
 C     2.193622     3.782293    -1.296085
 H     2.463750     4.348699    -2.188745
 C     1.934419     4.453867    -0.099406
Cl     2.005862     6.182819    -0.055074
