  84
scf done:    -3724.905438
 C     0.684152    -3.144680     1.406364
 H     1.264057    -3.831536     0.780271
 H     1.215312    -2.808381     2.302686
 C    -0.725280    -3.204117     1.404093
 H    -1.239722    -3.944047     0.781926
 H    -1.292013    -2.905317     2.290887
 H    -0.202674    -0.887164     1.646502
Co    -0.090787    -1.600512     0.353079
 C     1.567795     0.965707    -1.082017
 C     2.701139     0.097614     1.468649
 C     3.008020    -1.545643    -0.846067
 C    -2.223342     0.013618    -1.693211
 C    -3.351822    -1.240285     0.665324
 C    -1.937035     1.259222     0.904220
 P    -1.830181    -0.388954     0.097483
 P     1.748290    -0.536504     0.027967
 C    -0.176548    -2.389298    -1.204171
 O    -0.286760    -2.900166    -2.230795
 H     0.680824     1.484275    -0.690657
 H     1.278702     0.550648    -2.059999
 C     2.718132     1.910876    -1.198598
 C     3.776944     1.675141    -2.085605
 H     3.746252     0.803086    -2.742477
 C     2.782257     3.035717    -0.366542
 H     1.961557     3.230785     0.329174
 C     4.877217     2.528843    -2.121959
 H     5.695913     2.326058    -2.816783
 C     3.879022     3.892559    -0.404723
 H     3.911009     4.762173     0.256084
 C     4.935234     3.638165    -1.278300
 H     5.799005     4.306588    -1.307490
 C     2.138492     0.052456     2.748403
 C     3.992775     0.627988     1.318873
 C     4.104114     1.092422     3.687897
 C     4.684992     1.123496     2.419845
 C     2.831140     0.551419     3.851135
 H     1.144263    -0.386200     2.869122
 H     2.373518     0.508124     4.842350
 H     4.649814     1.482904     4.550548
 H     5.686067     1.538989     2.282818
 H     4.466861     0.649547     0.336306
 C     3.991942    -2.239717    -0.130598
 C     2.906111    -1.764120    -2.226731
 C     4.771586    -3.297161    -2.160247
 C     3.783878    -2.625508    -2.879466
 C     4.866910    -3.105949    -0.783393
 H     4.076284    -2.101354     0.949359
 H     5.629452    -3.636094    -0.207594
 H     5.459611    -3.974474    -2.671479
 H     3.689021    -2.778045    -3.957213
 H     2.122706    -1.271865    -2.807602
 H    -2.366896    -0.965167    -2.176046
 H    -1.276067     0.412231    -2.086053
 C    -3.351960     0.946176    -1.986388
 C    -3.099861     2.302905    -2.225698
 H    -2.066710     2.660827    -2.232773
 C    -4.682970     0.506801    -1.975736
 H    -4.900926    -0.547368    -1.791326
 C    -4.144304     3.200596    -2.431908
 H    -3.924609     4.255515    -2.612937
 C    -5.729312     1.404264    -2.175198
 H    -6.760803     1.043945    -2.157149
 C    -5.464874     2.755547    -2.399672
 H    -6.286775     3.458124    -2.556593
 C    -3.799382    -2.356127    -0.056826
 C    -3.994400    -0.914527     1.863572
 C    -5.538845    -2.752234     1.570896
 C    -5.081565    -1.665717     2.311456
 C    -4.889908    -3.098104     0.384375
 H    -3.281114    -2.660865    -0.970261
 H    -5.229317    -3.959486    -0.195979
 H    -6.392438    -3.337340     1.920982
 H    -5.573197    -1.395617     3.249266
 H    -3.644423    -0.067087     2.456530
 C    -0.801193     1.796498     1.518690
 C    -3.118380     2.018138     0.898803
 C    -2.000196     3.816736     2.067031
 C    -3.146338     3.285307     1.476018
 C    -0.826442     3.066737     2.091743
 H     0.108106     1.198311     1.566564
 H     0.074447     3.460117     2.569358
 H    -2.026560     4.812240     2.517079
 H    -4.074267     3.861685     1.459404
 H    -4.027981     1.617685     0.448652
