  90
scf done:    -3652.162494
 C    -1.054228    -2.950987    -1.538512
 H    -1.481597    -3.708198    -0.872956
 H    -1.740615    -2.618778    -2.324649
 C     0.337428    -2.935012    -1.781018
 H     0.992647    -3.660681    -1.288948
 H     0.718770    -2.583184    -2.744368
 H    -0.423252    -0.614614    -1.797907
Co    -0.172011    -1.413087    -0.564992
 C    -3.135310     0.017912    -1.349211
 O    -2.528267     0.134394     1.202709
 O    -1.033431     1.517447    -0.357818
 C     1.924336     0.681717     0.995084
 O     2.957057    -1.459559    -0.356234
 O     2.224213     0.571524    -1.661546
 P     1.695696    -0.427308    -0.466700
 P    -1.672920    -0.007532    -0.196786
 C     0.073584    -2.276146     0.933802
 O     0.272426    -2.858043     1.905808
 H    -2.932621     0.815810    -2.077417
 H    -3.057416    -0.929184    -1.900706
 C    -4.489836     0.172087    -0.727600
 C    -5.129525     1.414138    -0.711073
 H    -4.645755     2.269193    -1.190368
 C    -5.124022    -0.936652    -0.130249
 C    -4.486036    -2.294185    -0.162213
 H    -3.435943    -2.262052     0.162690
 H    -4.486695    -2.711914    -1.183232
 H    -5.022063    -3.001153     0.485783
 C    -6.370252     1.583685    -0.100218
 H    -6.849950     2.565327    -0.099943
 C    -6.367152    -0.751940     0.479854
 H    -6.858061    -1.610432     0.946940
 C    -6.990325     0.494764     0.504483
 H    -7.961891     0.610878     0.990684
 C    -2.017018    -0.199138     2.490794
 H    -0.918865    -0.308507     2.425431
 C    -2.629096    -1.510762     2.940780
 H    -2.373482    -2.325123     2.250351
 H    -3.725229    -1.416652     2.976631
 H    -2.263203    -1.787302     3.940623
 C    -2.351834     0.941328     3.431193
 H    -1.890923     1.880322     3.096106
 H    -3.441886     1.088603     3.467930
 H    -1.993108     0.723016     4.447957
 C    -1.734450     2.731883    -0.084223
 H    -2.698280     2.485872     0.394063
 C    -1.972459     3.481157    -1.383099
 H    -2.564286     2.888513    -2.094231
 H    -1.012011     3.724901    -1.862220
 H    -2.512088     4.421416    -1.194017
 C    -0.893860     3.545646     0.881011
 H    -0.689752     2.977580     1.798709
 H     0.072246     3.806729     0.421205
 H    -1.406773     4.479110     1.157006
 H     1.269191     1.535696     0.764962
 H     1.462488     0.151637     1.839934
 C     3.325922     1.098457     1.298943
 C     3.899606     2.180187     0.620832
 H     3.295424     2.724363    -0.107487
 C     4.099043     0.382591     2.236899
 C     3.523954    -0.788307     2.980961
 H     3.134673    -1.549332     2.287371
 H     2.687344    -0.484911     3.632273
 H     4.283094    -1.262684     3.618057
 C     5.219672     2.558145     0.847519
 H     5.647425     3.403812     0.303734
 C     5.421538     0.781295     2.459188
 H     6.022710     0.229879     3.187716
 C     5.986525     1.853283     1.772363
 H     7.023698     2.138927     1.963418
 C     4.255566    -1.298626    -0.948049
 H     4.516717    -0.227860    -0.950484
 C     4.221875    -1.820720    -2.371652
 H     3.498453    -1.256955    -2.973398
 H     3.932478    -2.882975    -2.379122
 H     5.212949    -1.725506    -2.840894
 C     5.237023    -2.059427    -0.082571
 H     5.275620    -1.639747     0.930336
 H     4.944379    -3.118672    -0.018223
 H     6.246589    -2.001731    -0.515865
 C     1.382474     1.216870    -2.619170
 H     0.341863     1.158563    -2.264499
 C     1.494516     0.503526    -3.950484
 H     1.186466    -0.546739    -3.845934
 H     2.530064     0.531178    -4.323542
 H     0.843490     0.978351    -4.700158
 C     1.795183     2.672989    -2.683678
 H     1.642954     3.160864    -1.709827
 H     2.857783     2.764626    -2.956399
 H     1.195857     3.211024    -3.433490
