  74
scf done:    -3194.232763
 C     1.025718     3.131909    -0.556229
 H     1.289355     3.701243     0.342250
 H     1.876720     2.947499    -1.222328
 C    -0.269526     3.265815    -1.112744
 H    -0.992509     3.942056    -0.643420
 H    -0.391065     3.172757    -2.194733
 H     0.355695     1.007937    -1.519012
Co    -0.068767     1.489091    -0.181809
 C     2.635332    -0.325216    -0.882063
 C     2.742327     1.283438     1.625649
 C     1.317338    -1.206009     1.539610
 C    -2.460655    -0.736184     0.745660
 C    -3.127067     0.723092    -1.666258
 C    -1.150179    -1.360987    -1.687082
 P    -1.649236     0.135429    -0.714187
 P     1.602376     0.318329     0.530832
 C    -0.773020     2.008918     1.329281
 O    -1.288429     2.333381     2.309012
 H     1.945263    -1.010147    -1.400465
 H     2.741718     0.541940    -1.547587
 C     3.945727    -1.001154    -0.619494
 C     3.968435    -2.351350    -0.248227
 H     3.024226    -2.899523    -0.193154
 C     5.169493    -0.308142    -0.743654
 C     5.218894     1.126624    -1.184936
 H     4.670749     1.789626    -0.498526
 H     4.768903     1.260415    -2.181980
 H     6.255848     1.485198    -1.236914
 C     5.159754    -3.009837     0.043173
 H     5.145900    -4.062346     0.335824
 C     6.358673    -0.984481    -0.451718
 H     7.306003    -0.446210    -0.544914
 C     6.364195    -2.318415    -0.050522
 H     7.309292    -2.818083     0.174442
 H     2.063889     1.804782     2.321675
 C     3.844269     0.567846     2.392826
 H     4.545817     0.041885     1.732031
 H     3.437261    -0.172233     3.097702
 H     3.148907     2.082558     0.986409
 H     4.423746     1.292387     2.986479
 H     2.281782    -1.703393     1.730224
 C     0.587430    -0.930668     2.845279
 H    -0.364268    -0.408942     2.675222
 H     1.186333    -0.301710     3.520972
 H     0.729840    -1.893640     0.907751
 H     0.367106    -1.867749     3.379162
 H    -1.787148    -1.576151     0.976501
 H    -2.390909    -0.040859     1.591188
 C    -3.866979    -1.216909     0.568391
 C    -4.123842    -2.463594    -0.015495
 H    -3.281550    -3.106513    -0.284893
 C    -4.956550    -0.412533     0.969501
 C    -4.745506     0.898311     1.674129
 H    -4.097125     1.587460     1.111336
 H    -4.260595     0.754388     2.653661
 H    -5.702721     1.407868     1.849422
 C    -5.423310    -2.908258    -0.244507
 H    -5.594222    -3.885066    -0.703118
 C    -6.255450    -0.873510     0.731930
 H    -7.099266    -0.249751     1.039836
 C    -6.497314    -2.102949     0.123359
 H    -7.523605    -2.434866    -0.050161
 H    -3.798721     1.194034    -0.933074
 C    -2.849099     1.701891    -2.795257
 H    -2.107470     1.322454    -3.512358
 H    -2.465969     2.651908    -2.403466
 H    -3.660271    -0.172099    -2.027722
 H    -3.775764     1.910385    -3.352214
 H    -2.014466    -2.044045    -1.710328
 C    -0.640226    -1.111191    -3.095641
 H     0.147692    -0.342367    -3.102373
 H    -1.445800    -0.772771    -3.763415
 H    -0.371758    -1.854218    -1.080582
 H    -0.222958    -2.033727    -3.528023
