  62
scf done:    -3037.119511
 C     0.714267     3.776866    -0.724062
 H     0.888645     4.439983     0.130336
 H     1.556181     3.723897    -1.421555
 C    -0.601362     3.602319    -1.213131
 H    -1.431084     4.129141    -0.728678
 H    -0.757408     3.420163    -2.282088
 H     0.579943     1.451215    -1.494816
Co     0.007715     1.964679    -0.212067
 C     1.854421    -0.846095     0.024355
 C     3.337782     1.633373    -0.387589
 C     2.293048     1.039887     2.151432
 C    -1.777122    -0.930599     0.151016
 C    -3.292996     1.472340    -0.513021
 C    -1.761154     0.192235    -2.501043
 P    -1.642114     0.707664    -0.747808
 P     1.804827     0.988400     0.380658
 C    -0.603070     2.322071     1.382287
 O    -1.013056     2.473909     2.449744
 H     1.123479    -1.274873     0.727542
 H     1.425519    -0.954280    -0.981441
 C     3.177035    -1.535280     0.151547
 C     3.609332    -1.984341     1.406033
 H     2.945714    -1.865682     2.266682
 C     4.014072    -1.729680    -0.968668
 C     3.576749    -1.337104    -2.351164
 H     3.313553    -0.271750    -2.421082
 H     2.685363    -1.905531    -2.664804
 H     4.369999    -1.535281    -3.084814
 C     4.852903    -2.586097     1.577320
 H     5.163818    -2.926630     2.567749
 C     5.261099    -2.335176    -0.779826
 H     5.909429    -2.485385    -1.647597
 C     5.688976    -2.755197     0.477243
 H     6.668948    -3.224015     0.592934
 H     3.200548     1.721037    -1.473455
 H     3.510320     2.643944     0.009812
 H     4.209526     0.999793    -0.164482
 H     2.342407     2.095249     2.457767
 H     1.521917     0.549351     2.763709
 H     3.267976     0.564793     2.335242
 H    -0.976784    -1.548780    -0.284410
 H    -1.479824    -0.721114     1.187954
 C    -3.095568    -1.633768     0.076319
 C    -3.392846    -2.444520    -1.026423
 H    -2.626468    -2.598765    -1.790790
 C    -4.068249    -1.467942     1.086171
 C    -3.781518    -0.671695     2.327586
 H    -3.422703     0.344675     2.109955
 H    -3.000382    -1.155255     2.937898
 H    -4.679929    -0.582678     2.953415
 C    -4.631981    -3.064371    -1.162631
 H    -4.836951    -3.692045    -2.033062
 C    -5.308754    -2.096319     0.933287
 H    -6.063285    -1.967163     1.714256
 C    -5.600357    -2.882055    -0.179281
 H    -6.579148    -3.358655    -0.270677
 H    -3.381861     1.873547     0.505987
 H    -3.362648     2.319971    -1.209881
 H    -4.115409     0.767714    -0.707099
 H    -1.708694     1.098005    -3.121916
 H    -0.897717    -0.439564    -2.754512
 H    -2.695790    -0.346710    -2.715506
