  96
scf done:    -3730.698318
 C     0.812089    -3.755447     1.646127
 H     1.566406    -4.367859     1.140649
 H     1.120805    -3.411045     2.637976
 C    -0.559113    -3.971055     1.371884
 H    -0.850817    -4.746420     0.655686
 H    -1.303701    -3.800261     2.154354
 H    -0.250699    -1.583647     1.797391
Co     0.071999    -2.262605     0.511818
 C     1.686480     0.366795     1.867279
 O     3.198848    -1.276490     0.488702
 O     1.464690     0.072960    -0.920588
 C    -2.133757    -0.985658    -1.703624
 O    -3.042392    -1.377050     0.731210
 O    -1.273795     0.498173     0.513381
 P    -1.579615    -1.059765     0.055192
 P     1.615476    -0.818187     0.459708
 C     0.305145    -2.971235    -1.071506
 O     0.425132    -3.418191    -2.124068
 H     1.686083    -0.321892     2.728331
 H     0.695469     0.845375     1.861029
 C     2.798421     1.366516     1.993746
 C     2.530791     2.739449     1.931053
 H     1.499108     3.077330     1.795640
 C     4.123104     0.959454     2.206992
 H     4.346348    -0.106456     2.263188
 C     3.554243     3.679265     2.037643
 H     3.320193     4.745205     1.981085
 C     5.147873     1.896252     2.313381
 H     6.174731     1.556728     2.470174
 C     4.870668     3.260202     2.220773
 H     5.676193     3.993796     2.301573
 C     3.638145    -2.444547    -0.187842
 H     4.353062    -2.945521     0.486189
 H     2.785038    -3.127003    -0.330093
 C     4.295573    -2.116035    -1.511828
 H     4.501082    -3.065255    -2.037586
 H     3.565600    -1.571541    -2.135508
 C     5.580509    -1.311558    -1.371689
 H     6.313976    -1.906466    -0.798673
 H     5.376379    -0.418136    -0.760246
 C     6.182576    -0.900323    -2.704702
 H     6.425702    -1.777813    -3.325531
 H     5.481085    -0.276984    -3.282727
 H     7.107716    -0.319227    -2.570944
 C     1.865147     1.406582    -1.173962
 H     1.330005     1.702503    -2.091948
 H     1.504568     2.068104    -0.369381
 C     3.355701     1.578026    -1.364336
 H     3.873042     1.270613    -0.442818
 H     3.692840     0.892796    -2.159458
 C     3.742990     3.008295    -1.708988
 H     3.331826     3.688327    -0.942832
 H     3.271328     3.301200    -2.664275
 C     5.248512     3.200103    -1.793740
 H     5.724017     2.971312    -0.826785
 H     5.695179     2.533020    -2.548673
 H     5.513584     4.234039    -2.062012
 H    -2.205178    -2.055157    -1.963346
 H    -1.254673    -0.606318    -2.249955
 C    -3.388970    -0.270223    -2.110206
 C    -3.335565     0.826777    -2.978305
 H    -2.367693     1.155624    -3.367870
 C    -4.645511    -0.697225    -1.657603
 H    -4.703419    -1.556516    -0.988953
 C    -4.493559     1.505624    -3.352994
 H    -4.425678     2.361956    -4.028432
 C    -5.803599    -0.018915    -2.028459
 H    -6.771849    -0.362013    -1.655614
 C    -5.733288     1.091301    -2.870184
 H    -6.642621     1.623859    -3.158357
 C    -3.183854    -1.643182     2.119035
 H    -3.790468    -2.560349     2.205697
 H    -2.195330    -1.852055     2.559692
 C    -3.854802    -0.489798     2.834778
 H    -3.914430    -0.745940     3.907634
 H    -3.197593     0.393174     2.764149
 C    -5.240513    -0.153843     2.302181
 H    -5.892601    -1.039037     2.410707
 H    -5.168407     0.035016     1.218978
 C    -5.874595     1.041520     2.993353
 H    -5.987161     0.869996     4.076197
 H    -5.257657     1.945852     2.867301
 H    -6.872216     1.264372     2.585495
 C    -1.683708     1.706050    -0.096378
 H    -0.964929     2.468391     0.250304
 H    -1.565211     1.641131    -1.190343
 C    -3.092671     2.127169     0.260072
 H    -3.798871     1.355767    -0.083300
 H    -3.183042     2.171581     1.358207
 C    -3.470352     3.470053    -0.347370
 H    -3.301040     3.433108    -1.437428
 H    -2.796278     4.255187     0.040046
 C    -4.917040     3.849517    -0.077560
 H    -5.601684     3.100598    -0.506172
 H    -5.122194     3.905166     1.003638
 H    -5.170123     4.826757    -0.515871
