 100
scf done:    -4182.842170
 C    -0.771596    -0.566193     4.023148
 H    -1.153117     0.216960     4.686741
 H    -1.455675    -1.409991     3.891306
 C     0.620407    -0.784858     3.924218
 H     1.308806    -0.169956     4.514407
 H     0.994035    -1.789491     3.703579
 H    -0.368796    -1.214039     1.726587
Co    -0.069498     0.134853     2.264227
 C    -3.340268    -0.442319     1.703745
 O    -2.410838     1.824963     0.759492
 O    -1.561572    -0.343306    -0.406159
 C     3.106486     0.934962     1.457431
 O     2.409222    -1.585506     1.192727
 O     1.405006     0.063783    -0.539223
 P     1.641146    -0.110560     1.090379
 P    -1.779279     0.311877     1.096883
 C     0.211665     1.784761     2.811230
 O     0.421454     2.844765     3.194025
 H    -3.456218    -0.002943     2.707952
 H    -3.083999    -1.502157     1.856956
 C    -4.594096    -0.293771     0.892555
 C    -5.094291    -1.372045     0.154534
 H    -4.567955    -2.329239     0.178713
 C    -5.286017     0.922880     0.851721
 H    -4.907545     1.771881     1.423625
 C    -6.235575    -1.233160    -0.629989
 H    -6.599409    -2.084235    -1.210397
 C    -6.430221     1.062756     0.071083
 H    -6.954437     2.021355     0.047014
 C    -6.906336    -0.012385    -0.678144
 H    -7.801542     0.099780    -1.294570
 C    -1.599023     2.893699     0.497298
 C    -1.947311     4.129420     1.041742
 H    -2.850082     4.202799     1.650999
 C    -0.449447     2.772630    -0.282865
 H    -0.182129     1.806753    -0.714446
 C    -1.133715     5.234053     0.819927
 H    -1.412381     6.196900     1.257194
 C     0.361404     3.888917    -0.481430
 H     1.269424     3.783137    -1.082821
 C     0.043242     5.135252     0.065193
 C     0.935967     6.326466    -0.128255
 H     1.455112     6.589479     0.808140
 H     0.363710     7.213486    -0.440809
 H     1.704262     6.133658    -0.890367
 C    -2.451612    -0.515118    -1.432970
 C    -3.214180     0.532849    -1.950781
 H    -3.136271     1.528800    -1.517188
 C    -2.540405    -1.785761    -1.995907
 H    -1.922446    -2.586368    -1.585866
 C    -4.098013     0.279358    -2.992593
 H    -4.710916     1.100526    -3.374101
 C    -3.422827    -2.018069    -3.047682
 H    -3.490808    -3.021733    -3.476596
 C    -4.229865    -0.996258    -3.555742
 C    -5.227339    -1.251922    -4.647337
 H    -6.257389    -1.214110    -4.254399
 H    -5.082019    -2.240629    -5.105219
 H    -5.158675    -0.495432    -5.444198
 H     3.256590     0.783422     2.539224
 H     2.730900     1.964050     1.336390
 C     4.376270     0.726273     0.688956
 C     4.738575     1.610622    -0.333034
 H     4.093709     2.464063    -0.557134
 C     5.214066    -0.361083     0.963875
 H     4.940304    -1.058986     1.757576
 C     5.892215     1.400749    -1.082597
 H     6.148745     2.094321    -1.886696
 C     6.371297    -0.569822     0.218411
 H     7.012307    -1.426013     0.442709
 C     6.711955     0.306443    -0.811280
 H     7.617554     0.138656    -1.399199
 C     1.759145    -2.783765     1.097644
 C     2.175060    -3.811925     1.944198
 H     2.973199    -3.611968     2.661771
 C     0.736050    -3.009614     0.175346
 H     0.403954    -2.204700    -0.482758
 C     1.568865    -5.060439     1.866061
 H     1.901648    -5.857229     2.537235
 C     0.138534    -4.267387     0.116489
 H    -0.663486    -4.438496    -0.607459
 C     0.537393    -5.314425     0.952064
 C    -0.097074    -6.672262     0.863556
 H     0.572585    -7.394154     0.367179
 H    -1.033434    -6.641977     0.288542
 H    -0.324847    -7.076367     1.861766
 C     2.282813     0.001289    -1.591989
 C     3.208352    -1.031928    -1.746408
 H     3.277477    -1.821121    -1.000052
 C     2.186725     0.998749    -2.559710
 H     1.432166     1.778944    -2.446947
 C     4.067496    -1.017777    -2.838412
 H     4.806670    -1.817641    -2.934579
 C     3.050812     0.990775    -3.651827
 H     2.970694     1.784104    -4.400210
 C     4.018440    -0.005853    -3.805016
 C     4.991206     0.010946    -4.947490
 H     6.005854     0.263637    -4.596196
 H     4.708709     0.751895    -5.708723
 H     5.056085    -0.972286    -5.438475
