  88
scf done:    -4025.705575
 C    -1.525410     1.947315    -2.941813
 H    -2.193820     1.561208    -3.718622
 H    -1.975433     2.718567    -2.308529
 C    -0.132117     1.959850    -3.149419
 H     0.282564     1.581176    -4.089241
 H     0.479989     2.725069    -2.666308
 H    -0.488592     1.506822    -0.797880
Co    -0.637206     0.484983    -1.852906
 C    -3.958867     0.436091    -1.077173
 O    -2.623635    -1.708426    -0.552449
 O    -2.192757     0.222157     0.973868
 C     2.059766    -1.529745    -1.401016
 O     2.434408     1.047078    -1.139571
 O     1.035510    -0.103204     0.726274
 P     1.160517    -0.001996    -0.922834
 P    -2.249118    -0.096115    -0.664987
 C    -0.673508    -0.749109    -3.101854
 O    -0.672207    -1.516970    -3.955201
 H    -4.144384     0.010709    -2.076276
 H    -3.914756     1.527870    -1.206225
 C    -5.007561     0.034834    -0.086811
 C    -5.331917     0.875251     0.984150
 H    -4.832585     1.842857     1.082355
 C    -5.649521    -1.204787    -0.186064
 H    -5.392051    -1.876012    -1.008439
 C    -6.279091     0.490080     1.929590
 H    -6.519846     1.159946     2.758565
 C    -6.598181    -1.590564     0.757246
 H    -7.091873    -2.560856     0.663088
 C    -6.916422    -0.744563     1.818879
 H    -7.660842    -1.047428     2.559081
 C    -1.676073    -2.679629    -0.395236
 C    -1.406068    -3.539912    -1.459785
 H    -1.928719    -3.393838    -2.405830
 C    -1.026391    -2.841470     0.828330
 H    -1.275630    -2.158307     1.640731
 C    -0.475652    -4.564203    -1.297565
 H    -0.261519    -5.233742    -2.133745
 C    -0.102039    -3.872074     0.982156
 H     0.404502    -4.003045     1.941383
 C     0.179938    -4.734146    -0.078112
 H     0.908258    -5.538350     0.046194
 C    -1.738771     1.362599     1.555068
 C    -1.031359     1.240791     2.752842
 H    -0.842015     0.245006     3.152432
 C    -1.983703     2.630845     1.020004
 H    -2.531890     2.736172     0.083298
 C    -0.568867     2.377406     3.406672
 H    -0.006448     2.267065     4.336650
 C    -1.521562     3.765046     1.685854
 H    -1.718027     4.750502     1.257142
 C    -0.811912     3.646710     2.878596
 H    -0.449205     4.537391     3.396157
 H     2.139875    -1.448224    -2.497720
 H     1.338738    -2.338112    -1.198156
 C     3.391079    -1.809277    -0.771838
 C     3.501179    -2.735795     0.270918
 H     2.608297    -3.267688     0.604933
 C     4.542295    -1.134399    -1.194754
 H     4.468930    -0.409167    -2.007595
 C     4.723635    -2.962948     0.896359
 H     4.785723    -3.678353     1.719521
 C     5.766636    -1.362825    -0.572312
 H     6.655060    -0.824060    -0.911052
 C     5.860774    -2.272961     0.479880
 H     6.820644    -2.446816     0.972040
 C     2.394111     2.400763    -0.967740
 C     3.150802     3.170452    -1.854200
 H     3.696511     2.663505    -2.652055
 C     1.680251     3.008398     0.067933
 H     1.100039     2.409414     0.771385
 C     3.184640     4.553770    -1.712870
 H     3.775012     5.152043    -2.410973
 C     1.719403     4.396690     0.192444
 H     1.156962     4.865627     1.002132
 C     2.464868     5.174288    -0.690690
 H     2.489546     6.260636    -0.581667
 C     1.972560    -0.331624     1.700154
 C     3.226907     0.281649     1.716179
 H     3.528496     0.939479     0.904674
 C     1.596058    -1.177229     2.745306
 H     0.608711    -1.635815     2.715591
 C     4.104774     0.011481     2.762587
 H     5.091817     0.479244     2.756199
 C     2.479000    -1.431246     3.790926
 H     2.174418    -2.097850     4.601591
 C     3.742454    -0.843056     3.802200
 H     4.439751    -1.047088     4.617463
