 108
scf done:    -4335.832502
 C     0.688963     0.199436    -3.039200
 H     1.342617     1.007623    -3.384060
 H     1.111447    -0.796907    -3.195087
 C    -0.709387     0.390403    -3.020970
 H    -1.133925     1.347205    -3.342761
 H    -1.383729    -0.459441    -3.145899
 H    -0.229078    -0.992396    -1.158576
Co     0.036864     0.444386    -1.150826
 C     1.333994    -1.472705     1.387826
 C     3.013383    -1.296337    -0.833121
 C     2.587060     1.152075     0.791093
 C    -1.682289     1.577565     1.519267
 C    -3.381498     0.977566    -0.650834
 C    -2.096081    -1.285583     0.696710
 P    -1.754322     0.429311     0.075170
 P     1.702546    -0.287836     0.028438
 C     0.409578     2.154250    -1.096547
 O     0.689061     3.274066    -1.097079
 H     0.618621    -0.980834     2.055280
 H     0.793166    -2.283457     0.874409
 C     2.523324    -2.019302     2.161967
 H     3.165574    -1.189756     2.497588
 H     3.145975    -2.630386     1.488283
 C     2.091293    -2.852589     3.358802
 H     1.550096    -2.234674     4.094246
 H     1.414771    -3.668001     3.054302
 H     2.952087    -3.304213     3.876466
 C     4.405188    -1.088801    -0.754304
 O     4.845297    -0.247596     0.198474
 C     6.158852     0.222292     0.172356
 H     6.222264     1.003578     0.941315
 H     6.889410    -0.572844     0.405959
 H     6.415880     0.663752    -0.806750
 C     2.579788    -2.364917    -1.645146
 O     1.285937    -2.711543    -1.520364
 C     0.688000    -3.581918    -2.432400
 H    -0.377656    -3.605539    -2.171754
 H     1.097957    -4.604772    -2.357382
 H     0.796997    -3.223841    -3.470987
 C     3.455175    -3.050589    -2.496948
 H     3.089569    -3.846284    -3.145031
 C     5.292472    -1.765615    -1.602888
 H     6.362558    -1.566768    -1.554975
 C     4.804568    -2.722443    -2.484109
 H     5.495771    -3.249097    -3.146578
 C     2.412571     1.601547     2.111239
 O     1.659342     0.835288     2.936822
 C     1.472857     1.226059     4.263803
 H     0.873327     0.438439     4.737257
 H     2.430120     1.314850     4.806926
 H     0.927958     2.183704     4.339725
 C     3.293845     2.002752    -0.083832
 O     3.379051     1.570671    -1.356127
 C     3.845952     2.428238    -2.355804
 H     3.730383     1.887771    -3.303796
 H     4.912726     2.681005    -2.219257
 H     3.254539     3.358889    -2.392471
 C     3.860083     3.206068     0.341465
 H     4.404832     3.841644    -0.355405
 C     2.979059     2.807143     2.552140
 H     2.844541     3.138413     3.580541
 C     3.702638     3.594001     1.666840
 H     4.137248     4.534945     2.012208
 H    -0.819849     1.259202     2.122285
 H    -1.393538     2.529573     1.041598
 C    -2.933063     1.769625     2.361645
 H    -3.327781     0.790141     2.670292
 H    -3.717790     2.231585     1.740245
 C    -2.671507     2.634297     3.585519
 H    -1.923523     2.168213     4.248435
 H    -2.279005     3.623903     3.299952
 H    -3.586554     2.795782     4.176769
 C    -4.618872     0.331564    -0.448644
 O    -4.658246    -0.627866     0.495046
 C    -5.779840    -1.446714     0.630124
 H    -5.514472    -2.210574     1.372934
 H    -6.661965    -0.886157     0.987795
 H    -6.040624    -1.948466    -0.318524
 C    -3.390761     2.121627    -1.475520
 O    -2.263580     2.854936    -1.493720
 C    -2.166088     3.965637    -2.340645
 H    -1.157139     4.369143    -2.197613
 H    -2.909130     4.740181    -2.082215
 H    -2.295908     3.681733    -3.399545
 C    -4.529902     2.494637    -2.203186
 H    -4.508652     3.360787    -2.862509
 C    -5.762685     0.693607    -1.172544
 H    -6.703180     0.164250    -1.024503
 C    -5.699177     1.760598    -2.059789
 H    -6.588854     2.046123    -2.626280
 C    -2.482072    -2.240102    -0.269358
 O    -2.735295    -1.748845    -1.496396
 C    -3.289055    -2.564278    -2.484347
 H    -3.474400    -1.917531    -3.351220
 H    -2.604120    -3.375925    -2.787412
 H    -4.244259    -3.011824    -2.157270
 C    -1.898096    -1.752037     2.004375
 O    -1.552260    -0.844199     2.947924
 C    -1.549881    -1.216997     4.294400
 H    -1.389889    -0.297030     4.871788
 H    -0.739806    -1.930160     4.526312
 H    -2.514193    -1.660316     4.597814
 C    -2.037561    -3.111784     2.326191
 H    -1.853792    -3.460077     3.341302
 C    -2.627819    -3.594612     0.038024
 H    -2.925007    -4.311151    -0.727006
 C    -2.393400    -4.021059     1.341580
 H    -2.493443    -5.079489     1.593012
