  96
scf done:    -5173.606107
 C     0.858930     3.002614    -0.907787
 H     0.042218     3.718051    -0.781684
 H     1.863082     3.414350    -0.771564
 C     0.687221     1.855458    -1.702573
 H    -0.266895     1.659802    -2.199055
 H     1.551009     1.432587    -2.226061
 H     0.515256     0.008350     0.884708
Co     0.593106     1.353730     0.277433
 O     2.398573    -1.003702    -0.904503
 O     3.617694     1.126743    -0.610011
 O     2.965927    -0.255696     1.478044
 O    -1.851414    -0.381557     1.236870
 O    -2.552742     1.951637     0.803355
 O    -2.088559     0.435396    -1.207188
 P    -1.430994     0.848729     0.244337
 P     2.356459     0.347419     0.075151
 C     0.778763     2.321718     1.735053
 O     0.925595     2.950542     2.682329
 C     1.383582    -1.912414    -0.950190
 C     0.848491    -2.233734    -2.197425
 H     1.239255    -1.733979    -3.085201
 C     0.901610    -2.534081     0.203517
 H     1.333887    -2.288167     1.174868
 C    -0.173639    -3.170934    -2.295957
 H    -0.597339    -3.432995    -3.266888
 C    -0.136174    -3.456659     0.110150
 H    -0.531481    -3.933897     1.008023
 C    -0.674105    -3.764113    -1.137309
Cl    -2.008520    -4.868797    -1.250638
 C     4.851884     0.674642    -1.026921
 C     5.973159     1.132661    -0.344532
 H     5.828976     1.801893     0.505614
 C     4.975390    -0.173880    -2.125813
 H     4.084113    -0.509656    -2.653633
 C     7.252825     0.710805    -0.716776
 C     8.451234     1.173197     0.058355
 H     8.490802     2.271907     0.116648
 H     8.411604     0.792557     1.091534
 H     9.387206     0.822123    -0.397795
 C     6.249203    -0.587393    -2.505388
 H     6.363042    -1.255187    -3.362896
 C     7.376418    -0.158840    -1.805841
 H     8.369061    -0.499037    -2.111821
 C     4.242165    -0.718369     1.706259
 C     4.770195    -1.787353     0.988132
 H     4.168621    -2.262977     0.212775
 C     4.981338    -0.087216     2.704900
 H     4.528838     0.738224     3.256995
 C     6.081552    -2.213521     1.224140
 C     6.670633    -3.314745     0.393202
 H     5.973345    -4.159976     0.292589
 H     6.889246    -2.947008    -0.622596
 H     7.608162    -3.691173     0.825515
 C     6.277100    -0.525387     2.958470
 H     6.867640    -0.041460     3.740265
 C     6.826935    -1.571809     2.218768
 H     7.850348    -1.899849     2.418008
 C    -3.111512    -0.856582     1.520533
 C    -3.482213    -2.095674     1.003162
 H    -2.782809    -2.647934     0.377092
 C    -3.986020    -0.132191     2.327627
 H    -3.670256     0.827703     2.734475
 C    -4.760000    -2.588215     1.235932
 H    -5.070741    -3.540095     0.803879
 C    -5.266644    -0.624292     2.564027
 H    -5.973794    -0.060767     3.174610
 C    -5.651357    -1.839740     2.002526
Cl    -7.271138    -2.417962     2.238418
 C    -2.447699     3.265125     0.411402
 C    -2.668503     3.626594    -0.916289
 H    -2.919804     2.854797    -1.646735
 C    -2.120698     4.222534     1.369695
 H    -1.939477     3.909265     2.398732
 C    -2.550518     4.963208    -1.315451
 C    -2.742783     5.336658    -2.756112
 H    -3.632708     4.849433    -3.181975
 H    -2.852290     6.422855    -2.880736
 H    -1.877486     5.016165    -3.359337
 C    -2.012135     5.552951     0.977934
 H    -1.751578     6.312927     1.718219
 C    -2.221493     5.921190    -0.351028
 H    -2.126139     6.969315    -0.645503
 C    -3.299599    -0.165285    -1.480681
 C    -4.509860     0.359195    -1.024884
 H    -4.512869     1.265753    -0.419910
 C    -3.266536    -1.322650    -2.250884
 H    -2.301631    -1.698592    -2.589419
 C    -5.707421    -0.309890    -1.290026
 C    -7.008060     0.205415    -0.747052
 H    -7.409740    -0.482861     0.014122
 H    -6.885999     1.190858    -0.276986
 H    -7.766331     0.293946    -1.540354
 C    -4.460226    -1.983328    -2.529288
 H    -4.439242    -2.905530    -3.114623
 C    -5.668260    -1.489336    -2.046544
 H    -6.598344    -2.024641    -2.254538
