  88
scf done:    -3426.094303
 C     1.620257    -2.066949    -2.137640
 H     1.904379    -1.746806    -3.146330
 H     2.476369    -2.329446    -1.506802
 C     0.384977    -2.728792    -1.944653
 H    -0.269273    -2.903843    -2.804632
 H     0.301622    -3.486986    -1.159772
 H     0.738523    -1.439428     0.054569
Co     0.308317    -0.842823    -1.224368
 C     3.247273    -0.078112     0.223080
 O     1.998199     1.962808    -1.053055
 O     0.994160     1.153920     1.066589
 C    -2.129283     1.052709     0.030404
 O    -2.922569    -1.327153    -0.627081
 O    -1.316676    -1.261762     1.387288
 P    -1.497230    -0.659998    -0.128037
 P     1.598724     0.520279    -0.328453
 C    -0.211244     0.024595    -2.654887
 O    -0.547515     0.624803    -3.576579
 H     3.791465     0.773381     0.667609
 H     3.808053    -0.380336    -0.675708
 C     3.144834    -1.225622     1.220322
 H     2.367759    -0.985104     1.964625
 H     2.781078    -2.129997     0.703793
 C     4.450703    -1.551794     1.947353
 H     4.778187    -0.632578     2.471017
 C     4.210640    -2.628054     2.999512
 H     3.429758    -2.323966     3.713950
 H     5.126492    -2.845801     3.570630
 H     3.879811    -3.568198     2.527692
 C     5.559818    -1.963499     0.986056
 H     6.485356    -2.211523     1.528405
 H     5.802737    -1.166096     0.267488
 H     5.262891    -2.855228     0.408385
 C     3.077973     2.179674    -1.951069
 H     4.014597     1.833215    -1.473587
 C     3.169576     3.678933    -2.149836
 H     3.305370     4.188989    -1.185121
 H     2.243383     4.054506    -2.610763
 H     4.015732     3.934488    -2.804690
 C     2.888478     1.428205    -3.256017
 H     2.815882     0.344527    -3.084633
 H     1.962309     1.751434    -3.753857
 H     3.736091     1.615819    -3.932061
 C     1.610724     2.229855     1.775852
 H     2.588427     2.453910     1.315331
 C     1.817719     1.795955     3.213112
 H     2.487758     0.926010     3.270958
 H     0.854602     1.516388     3.666205
 H     2.258266     2.611656     3.806000
 C     0.734984     3.459670     1.643005
 H     0.592719     3.701376     0.580509
 H    -0.250708     3.283439     2.100606
 H     1.195750     4.324892     2.143523
 H    -2.012668     1.444329    -0.995804
 H    -1.367645     1.572146     0.631558
 C    -3.553928     1.308870     0.502615
 H    -4.223937     0.588710     0.008160
 H    -3.643543     1.124433     1.586642
 C    -4.051813     2.728704     0.217591
 H    -3.984914     2.886908    -0.875629
 C    -5.515068     2.865408     0.621443
 H    -6.143490     2.116738     0.114418
 H    -5.910776     3.862761     0.373911
 H    -5.636480     2.720427     1.708244
 C    -3.195705     3.791966     0.895905
 H    -3.586922     4.802623     0.701003
 H    -2.153535     3.767884     0.545784
 H    -3.185436     3.645630     1.989973
 C    -2.978847    -2.613525    -1.244043
 H    -2.021067    -3.131803    -1.070251
 C    -3.182830    -2.428112    -2.734102
 H    -2.360874    -1.836930    -3.161109
 H    -4.126781    -1.894228    -2.924444
 H    -3.218776    -3.398992    -3.251001
 C    -4.100506    -3.392617    -0.587955
 H    -3.918597    -3.506668     0.490169
 H    -5.059183    -2.867623    -0.720481
 H    -4.189690    -4.395227    -1.032464
 C    -2.299850    -1.228486     2.417353
 H    -3.287042    -1.015199     1.971864
 C    -1.931838    -0.145620     3.414899
 H    -1.869645     0.837589     2.927968
 H    -0.947820    -0.365333     3.856080
 H    -2.675221    -0.086663     4.224398
 C    -2.338076    -2.606079     3.048909
 H    -2.593846    -3.367513     2.298596
 H    -1.350799    -2.857813     3.465355
 H    -3.082263    -2.647529     3.858466
