 108
scf done:    -3439.560847
 C    -0.641199     2.395243     2.320752
 H    -1.376078     3.177177     2.097338
 H    -0.874397     1.817599     3.222121
 C     0.710718     2.584024     1.946612
 H     1.003189     3.513092     1.446043
 H     1.505475     2.155077     2.567227
 H     0.226714     0.202373     1.731174
Co    -0.178461     1.237966     0.743094
 C    -2.047203    -1.335415     1.944094
 C    -3.521284     0.964593     1.246546
 C    -2.497416    -0.707417    -0.853779
 C     1.106127    -1.177826    -1.200724
 C     2.461308     1.329523    -1.433753
 C     2.814963    -0.242253     0.984586
 P     1.516164     0.325945    -0.205616
 P    -1.985708     0.068992     0.746662
 C    -0.581691     2.278377    -0.597380
 O    -0.804123     2.909102    -1.538415
 H    -3.073092    -1.738447     1.994835
 H    -1.833458    -0.869094     2.919161
 C    -1.046354    -2.438435     1.646205
 H    -1.294613    -2.905314     0.677048
 H    -0.049777    -1.978971     1.526207
 C    -0.944273    -3.543381     2.700342
 H    -1.955385    -3.968911     2.845525
 C    -0.033837    -4.657509     2.195387
 H    -0.397959    -5.077050     1.244376
 H     0.039996    -5.481252     2.922051
 H     0.986592    -4.276073     2.020216
 C    -0.456675    -3.012135     4.043557
 H    -0.366731    -3.823378     4.782384
 H    -1.137217    -2.257470     4.464760
 H     0.535676    -2.541921     3.938464
 H    -3.335554     1.336459     2.267918
 H    -4.342811     0.233238     1.316370
 C    -3.883908     2.121548     0.329550
 H    -3.035146     2.822834     0.297601
 H    -4.013743     1.759764    -0.707313
 C    -5.144891     2.890103     0.732981
 H    -5.011875     3.216049     1.782034
 C    -5.299131     4.137054    -0.130109
 H    -4.413534     4.787203    -0.058978
 H    -6.179060     4.728045     0.168063
 H    -5.425077     3.864269    -1.191346
 C    -6.398835     2.025005     0.663859
 H    -7.294635     2.599010     0.947408
 H    -6.341937     1.153562     1.333426
 H    -6.556178     1.649829    -0.362026
 H    -1.658249    -1.353515    -1.157033
 H    -2.500056     0.119797    -1.582289
 C    -3.801808    -1.487361    -0.890820
 H    -3.812153    -2.229543    -0.074065
 H    -4.653626    -0.811162    -0.695921
 C    -4.057872    -2.224706    -2.209238
 H    -3.194045    -2.895040    -2.383661
 C    -5.307679    -3.090269    -2.100064
 H    -5.230869    -3.807035    -1.267407
 H    -5.482876    -3.663866    -3.023421
 H    -6.200259    -2.467432    -1.921638
 C    -4.157825    -1.271166    -3.394571
 H    -4.358746    -1.818676    -4.328359
 H    -3.233135    -0.694078    -3.543322
 H    -4.981079    -0.551486    -3.247380
 H     0.469885    -0.797276    -2.019343
 H     0.437450    -1.760226    -0.551842
 C     2.202498    -2.072212    -1.756401
 H     2.940273    -1.471628    -2.314577
 H     2.755101    -2.542876    -0.923937
 C     1.688586    -3.182028    -2.680441
 H     1.176843    -2.691970    -3.530539
 C     2.856469    -3.987941    -3.237236
 H     3.579999    -3.341636    -3.758355
 H     2.514686    -4.754133    -3.950174
 H     3.396241    -4.505495    -2.426509
 C     0.678031    -4.093479    -1.991116
 H     0.367810    -4.913581    -2.656792
 H    -0.232903    -3.553929    -1.690379
 H     1.111621    -4.546282    -1.083243
 H     1.780238     1.488601    -2.287473
 H     3.309667     0.735766    -1.808416
 C     2.923007     2.673348    -0.887943
 H     2.034076     3.259201    -0.609313
 H     3.485353     2.531096     0.053354
 C     3.782684     3.493121    -1.852969
 H     3.229105     3.566020    -2.808272
 C     3.977079     4.906093    -1.315105
 H     3.011721     5.409633    -1.152012
 H     4.569137     5.524443    -2.007684
 H     4.508998     4.886194    -0.349002
 C     5.128298     2.833397    -2.136681
 H     5.724614     3.432074    -2.842624
 H     5.018036     1.828179    -2.570916
 H     5.716053     2.733337    -1.208165
 H     2.424580    -1.186156     1.405827
 H     2.766518     0.483492     1.809232
 C     4.247504    -0.414329     0.500934
 H     4.276502    -1.057387    -0.391839
 H     4.651902     0.561603     0.180102
 C     5.195685    -1.006667     1.548546
 H     4.775948    -1.982341     1.860569
 C     6.566272    -1.262133     0.932042
 H     6.497178    -1.925969     0.055919
 H     7.253732    -1.727999     1.655013
 H     7.026215    -0.317156     0.597294
 C     5.313012    -0.128661     2.789559
 H     6.014980    -0.563717     3.517655
 H     4.347627     0.002003     3.300376
 H     5.688947     0.873846     2.523271
