 100
scf done:    -3734.556560
 C    -1.129550    -0.617588    -3.265524
 H    -1.809028    -1.457580    -3.443411
 H    -1.596926     0.356915    -3.439041
 C     0.260108    -0.777052    -3.467406
 H     0.641323    -1.743021    -3.818248
 H     0.871174     0.076126    -3.777326
 H     0.027930     0.741655    -1.649620
Co    -0.165561    -0.718152    -1.498389
 C    -1.782586    -0.725836     1.565143
 C    -2.042129     1.674338     0.052718
 C    -3.470943    -0.675657    -0.702121
 C     2.337265    -1.617208     0.641338
 C     3.098621     0.202906    -1.383791
 C     1.413888     1.128101     0.760532
 P     1.617841    -0.270009    -0.407353
 P    -1.789977    -0.129313    -0.188242
 C    -0.134881    -2.456902    -1.320075
 O    -0.035214    -3.602325    -1.232847
 H    -2.741875    -0.446840     2.032334
 H    -0.987580    -0.155179     2.069223
 C    -1.550376    -2.219121     1.711382
 H    -2.283009    -2.770896     1.098519
 H    -0.561313    -2.481096     1.300312
 C    -1.636385    -2.731233     3.151825
 H    -2.654047    -2.506863     3.523783
 C    -1.446904    -4.243346     3.181186
 H    -2.179710    -4.752904     2.536678
 H    -1.554824    -4.644678     4.200801
 H    -0.441801    -4.517300     2.818638
 C    -0.639283    -2.041884     4.077579
 H    -0.709039    -2.440295     5.101580
 H    -0.804334    -0.955379     4.134313
 H     0.395035    -2.206441     3.731592
 C    -2.320414     2.260658     1.290143
 H    -2.393688     1.651089     2.191016
 C    -1.960168     2.511643    -1.068381
 H    -1.730224     2.074080    -2.042245
 C    -2.499683     3.638773     1.403304
 H    -2.712780     4.070089     2.385605
 C    -2.145189     3.883247    -0.952318
 H    -2.075327     4.511557    -1.844959
 C    -2.409298     4.476596     0.289993
 C    -2.553050     5.964359     0.420321
 H    -1.564678     6.454226     0.445271
 H    -3.103374     6.393630    -0.430106
 H    -3.079788     6.240372     1.345010
 C    -4.613765     0.107457    -0.506503
 H    -4.521775     1.105257    -0.070952
 C    -3.627045    -1.945940    -1.270481
 H    -2.747985    -2.568898    -1.448770
 C    -5.871893    -0.369756    -0.866108
 H    -6.749988     0.263014    -0.707432
 C    -4.888227    -2.423014    -1.613664
 H    -4.983136    -3.422260    -2.048199
 C    -6.034489    -1.641871    -1.424945
 C    -7.386921    -2.140746    -1.841876
 H    -7.569767    -1.934316    -2.909869
 H    -7.476546    -3.228048    -1.701725
 H    -8.190842    -1.652897    -1.272046
 H     2.371256    -2.494997    -0.025962
 H     1.564996    -1.855930     1.390637
 C     3.699760    -1.383420     1.273009
 H     4.417819    -1.123893     0.478577
 H     3.666969    -0.504785     1.941316
 C     4.248455    -2.581333     2.053769
 H     4.300183    -3.436087     1.353075
 C     5.663515    -2.286807     2.538218
 H     6.327155    -2.020666     1.700897
 H     6.102006    -3.154386     3.055405
 H     5.666078    -1.440778     3.245880
 C     3.348813    -2.986823     3.216385
 H     3.787759    -3.820171     3.786491
 H     2.353930    -3.313244     2.877958
 H     3.207721    -2.145161     3.916253
 C     3.418420    -0.589857    -2.492768
 H     2.748327    -1.404435    -2.776296
 C     3.966039     1.243528    -1.037697
 H     3.752187     1.866003    -0.166232
 C     4.572771    -0.349572    -3.229956
 H     4.804191    -0.986962    -4.088220
 C     5.113141     1.488841    -1.789802
 H     5.776627     2.309351    -1.501620
 C     5.438151     0.700718    -2.898565
 C     6.658049     0.985033    -3.724735
 H     7.121254     0.057304    -4.092063
 H     6.400895     1.591587    -4.609339
 H     7.412764     1.543210    -3.152373
 C     1.355331     0.962037     2.146573
 H     1.511019    -0.021200     2.594483
 C     1.191862     2.413107     0.241843
 H     1.200525     2.564667    -0.840368
 C     1.082622     2.043837     2.985609
 H     1.031879     1.882261     4.066149
 C     0.943617     3.489413     1.080917
 H     0.768936     4.477124     0.645955
 C     0.877581     3.325448     2.471354
 C     0.587543     4.495354     3.363313
 H     1.406648     5.232036     3.332897
 H    -0.327624     5.016832     3.041368
 H     0.454070     4.185182     4.409184
