 110
scf done:    -3665.629628
 C     0.390571    -3.005717    -2.253016
 H     1.020041    -2.858827    -3.138200
 H     0.837087    -3.666107    -1.501429
 C    -1.019617    -2.964002    -2.383398
 H    -1.464727    -2.788739    -3.369129
 H    -1.636636    -3.589956    -1.730946
 H    -0.479891    -2.026050    -0.183591
Co    -0.345653    -1.299069    -1.481204
 C     2.188317    -1.734198     0.681842
 C     2.896878    -0.423733    -1.816366
 C     1.481495     1.047323     0.242061
 C    -2.920202     0.902584    -1.668238
 C    -3.550246    -1.617874    -0.482751
 C    -2.038733     0.366138     1.007866
 P    -2.129279    -0.454184    -0.648461
 P     1.495435    -0.589855    -0.615179
 C    -0.275071    -0.311657    -2.917463
 O    -0.230880     0.365651    -3.849050
 H     1.447245    -1.731480     1.495657
 H     2.135709    -2.730505     0.219128
 C     3.563043    -1.441592     1.189642
 C     4.682653    -2.064852     0.628591
 H     4.546124    -2.822873    -0.147184
 C     3.765863    -0.493584     2.202048
 H     2.896246    -0.020021     2.667216
 C     5.966063    -1.711126     1.040257
 H     6.834432    -2.196798     0.588124
 C     5.043916    -0.126298     2.627996
 C     5.234622     0.901005     3.706230
 H     4.271478     1.277969     4.078245
 H     5.786769     0.482589     4.562609
 H     5.815309     1.761589     3.337739
 C     6.148213    -0.741854     2.022523
 H     7.159085    -0.467247     2.336545
 H     3.259224    -1.454726    -1.971516
 H     2.448595    -0.128373    -2.778459
 C     4.052888     0.505436    -1.463535
 H     3.721241     1.554408    -1.552521
 H     4.353093     0.371097    -0.413440
 C     5.276286     0.289233    -2.342188
 H     5.007667     0.437130    -3.404218
 H     5.594448    -0.765899    -2.255824
 C     6.444513     1.192919    -1.974713
 H     6.127498     2.247888    -2.057224
 H     6.690575     1.036270    -0.909299
 C     7.681430     0.961315    -2.827130
 H     8.508131     1.627230    -2.536128
 H     7.471602     1.138645    -3.894341
 H     8.041396    -0.076074    -2.732754
 H     0.882745     0.908044     1.156067
 H     2.496839     1.320726     0.568808
 C     0.864459     2.141875    -0.616039
 H     1.515516     2.357606    -1.481217
 H    -0.075140     1.758006    -1.047003
 C     0.577921     3.428301     0.143864
 H     1.507405     3.807463     0.605572
 H    -0.100214     3.203557     0.988928
 C    -0.042754     4.515621    -0.722509
 H     0.667449     4.791519    -1.521300
 H    -0.923463     4.102085    -1.245707
 C    -0.449898     5.754073     0.058635
 H    -0.884280     6.524183    -0.596640
 H     0.413148     6.204205     0.574994
 H    -1.200858     5.510426     0.827980
 H    -2.098958     1.582343    -1.941807
 H    -3.230386     0.406701    -2.601646
 C    -4.048166     1.666544    -1.050251
 C    -5.378437     1.242786    -1.176100
 H    -5.609350     0.358747    -1.775919
 C    -3.790098     2.822030    -0.304817
 H    -2.757835     3.173314    -0.214582
 C    -6.404104     1.949765    -0.555411
 H    -7.437994     1.612377    -0.662809
 C    -4.806857     3.545496     0.326592
 C    -4.477259     4.779813     1.115943
 H    -5.376670     5.228616     1.559906
 H    -3.773883     4.553579     1.933305
 H    -3.997387     5.541632     0.481070
 C    -6.122318     3.089888     0.195736
 H    -6.934561     3.639460     0.679021
 H    -4.445064    -1.047808    -0.182133
 H    -3.727108    -1.985130    -1.508318
 C    -3.329143    -2.798335     0.453299
 H    -2.305104    -3.185805     0.318956
 H    -3.389200    -2.457975     1.500659
 C    -4.334345    -3.920757     0.237931
 H    -4.257785    -4.276898    -0.805840
 H    -5.360997    -3.524582     0.344420
 C    -4.143306    -5.095943     1.186198
 H    -3.112556    -5.478109     1.080326
 H    -4.221898    -4.736893     2.227910
 C    -5.134813    -6.225234     0.957743
 H    -4.971224    -7.059088     1.657222
 H    -5.051780    -6.627894    -0.064636
 H    -6.172649    -5.878859     1.089973
 H    -1.508043     1.316035     0.827082
 H    -3.058391     0.644650     1.321198
 C    -1.316941    -0.410429     2.098668
 H    -1.936724    -1.253340     2.443029
 H    -0.418381    -0.875435     1.664282
 C    -0.924014     0.449683     3.291353
 H    -1.828110     0.882610     3.756312
 H    -0.333950     1.315970     2.937101
 C    -0.118177    -0.305535     4.339157
 H    -0.719666    -1.148188     4.722761
 H     0.759189    -0.768431     3.852269
 C     0.344568     0.566862     5.494376
 H     0.919795    -0.009142     6.234896
 H    -0.509992     1.024096     6.018601
 H     0.987923     1.388888     5.139600
