  90
scf done:    -4176.015171
 C    -0.096621     0.703848    -3.550730
 H    -0.484741    -0.073024    -4.216809
 H    -0.730565     1.591565    -3.482029
 C     1.282792     0.788961    -3.290682
 H     1.978067     0.076994    -3.746732
 H     1.731468     1.757827    -3.055421
 H     0.095873     1.397089    -1.248598
Co     0.306137     0.001745    -1.694657
 C    -1.720776     0.761380     0.844161
 O    -2.761463     0.608496    -1.734183
 O    -2.115912    -1.574027    -0.507130
 C     1.944274    -1.315971     0.978694
 O     3.326939     0.372669    -0.688137
 O     1.697809     1.252295     0.960770
 P     1.763215     0.065608    -0.194762
 P    -1.559814    -0.027745    -0.794506
 C     0.398785    -1.677473    -2.200106
 O     0.427031    -2.776745    -2.528129
 C    -1.559199     0.006482     2.010263
 H    -1.468609    -1.078019     1.946329
 C    -1.755251     2.167236     0.949457
 O    -1.824356     2.851143    -0.206217
 C    -1.609098     4.239769    -0.206249
 H    -2.425373     4.777523     0.306858
 H    -1.589508     4.545882    -1.259151
 H    -0.645741     4.496127     0.262203
 C    -1.502285     0.613081     3.261758
 H    -1.381327     0.001241     4.157310
 C    -1.715472     2.778367     2.206021
 H    -1.750753     3.864275     2.289141
 C    -1.598047     1.998257     3.353610
 H    -1.563327     2.487939     4.330033
 C    -4.104802     0.534184    -1.489287
 C    -4.742273     1.529748    -0.748431
 H    -4.151697     2.368000    -0.379931
 C    -4.827865    -0.539047    -2.010879
 H    -4.299335    -1.298771    -2.589011
 C    -6.110780     1.426212    -0.503781
 H    -6.612242     2.200891     0.081511
 C    -6.193974    -0.630594    -1.761573
 H    -6.758063    -1.478005    -2.157881
 C    -6.838503     0.345326    -1.000939
 H    -7.909557     0.266874    -0.801942
 C    -3.011334    -2.205129     0.307834
 C    -4.068731    -1.580427     0.971543
 H    -4.236076    -0.509410     0.867518
 C    -2.811290    -3.581902     0.448928
 H    -1.981778    -4.041854    -0.092513
 C    -4.914912    -2.343260     1.773959
 H    -5.741352    -1.846300     2.287412
 C    -3.665942    -4.331885     1.251199
 H    -3.503882    -5.408009     1.350395
 C    -4.722866    -3.715590     1.920932
 H    -5.394724    -4.302411     2.550851
 C     0.948404    -2.293704     0.987305
 H     0.117364    -2.203818     0.285043
 C     3.011858    -1.417649     1.899670
 O     3.933279    -0.447530     1.872147
 C     5.093236    -0.565800     2.647032
 H     4.866638    -0.561709     3.727366
 H     5.712796     0.307510     2.409622
 H     5.655144    -1.481586     2.395652
 C     0.987584    -3.368020     1.873307
 H     0.190291    -4.113462     1.866039
 C     3.064183    -2.508253     2.775970
 H     3.889718    -2.608785     3.480502
 C     2.054209    -3.469008     2.760529
 H     2.109988    -4.308247     3.458450
 C     4.271643    -0.516994    -1.072449
 C     3.982146    -1.818334    -1.492507
 H     2.952514    -2.173831    -1.529626
 C     5.597559    -0.071683    -1.042773
 H     5.791318     0.950389    -0.712111
 C     5.023852    -2.665938    -1.868872
 H     4.787637    -3.681630    -2.195130
 C     6.625552    -0.925878    -1.425610
 H     7.658159    -0.568585    -1.400033
 C     6.346249    -2.230603    -1.837595
 H     7.155163    -2.900664    -2.136217
 C     1.782889     2.594197     0.796464
 C     1.542361     3.367736     1.937035
 H     1.287665     2.851330     2.863261
 C     2.113229     3.216466    -0.410797
 H     2.329164     2.613720    -1.291667
 C     1.630735     4.754006     1.869165
 H     1.447352     5.348043     2.768146
 C     2.188837     4.607792    -0.467115
 H     2.449221     5.085594    -1.414790
 C     1.949666     5.385117     0.664789
 H     2.019658     6.473695     0.612237
