 122
scf done:    -4719.029465
 C    -1.051607    -2.873937     2.220720
 H    -1.446369    -2.317073     3.074359
 H    -1.758438    -3.593121     1.795317
 C     0.340181    -3.098568     2.099831
 H     1.024375    -2.728225     2.868390
 H     0.709253    -3.988000     1.575801
 H     0.027370    -0.784217     2.023075
Co    -0.255643    -1.636017     0.858245
 C     2.266836     0.407198     1.420730
 C     2.861290    -2.212909     0.005693
 C     1.798531     0.102245    -1.390842
 C    -1.625455     0.475292    -1.369537
 C    -3.504276    -0.137044     0.741802
 C    -1.231029     1.455725     1.507386
 P    -1.672636    -0.035098     0.492712
 P     1.640783    -0.847135     0.187866
 C    -0.571731    -2.705194    -0.501870
 O    -0.776433    -3.469936    -1.339075
 H     1.383110     1.055771     1.500258
 H     2.315529    -0.162079     2.355048
 C     3.486253     1.248256     1.220167
 C     4.734513     0.888199     1.744862
 H     4.831957    -0.061930     2.271230
 C     3.380583     2.462004     0.536906
 H     2.408051     2.736617     0.123966
 C     5.830719     1.729713     1.589128
 H     6.798511     1.444344     2.010233
 C     4.474891     3.315459     0.357386
 C     4.312791     4.598128    -0.406303
 H     3.576428     5.262367     0.075059
 H     5.260570     5.150007    -0.480282
 H     3.950324     4.404939    -1.428577
 C     5.706127     2.937475     0.900424
 H     6.573559     3.593218     0.782855
 C     2.860944    -2.937576    -1.203235
 O     2.033293    -2.471522    -2.155718
 C     1.825845    -3.192151    -3.334565
 H     1.075020    -2.631667    -3.905842
 H     2.749139    -3.271204    -3.934813
 H     1.435424    -4.202650    -3.126282
 C     3.630622    -2.721387     1.064580
 O     3.547979    -2.071426     2.249607
 C     4.105134    -2.651309     3.394062
 H     3.830822    -2.002398     4.236142
 H     5.206471    -2.709256     3.336479
 H     3.700846    -3.662427     3.573090
 C     4.429773    -3.860724     0.900669
 H     5.034047    -4.237689     1.724578
 C     3.652358    -4.077296    -1.377486
 H     3.645842    -4.618512    -2.322867
 C     4.439368    -4.521693    -0.321390
 H     5.060918    -5.411237    -0.447705
 C     0.663364     0.439566    -2.140826
 O    -0.507925    -0.195750    -1.898346
 C     1.912824     5.804166    -3.327452
 H     1.962116     6.257073    -2.328195
 H     2.197124     4.745707    -3.262642
 H     2.602714     6.331078    -3.999698
 C     3.051756     0.533604    -1.880201
 O     4.126339     0.023552    -1.263020
 C     5.411385     0.394685    -1.671672
 H     6.108275    -0.136770    -1.012568
 H     5.575402     1.478706    -1.556892
 H     5.602590     0.099316    -2.718371
 C     3.138797     1.412181    -2.966147
 H     4.108200     1.765620    -3.316191
 C     0.738089     1.315414    -3.231395
 H    -0.174598     1.543649    -3.785263
 C     1.973761     1.812175    -3.620697
 H     2.044752     2.484894    -4.479207
 H    -1.498181     1.560882    -1.419808
 H     0.889354     5.885079    -3.717490
 C    -2.867382     0.064039    -2.099731
 C    -2.956420    -1.169785    -2.748903
 H    -2.088666    -1.828884    -2.769470
 C    -3.979323     0.910000    -2.085748
 H    -3.902397     1.876192    -1.578683
 C    -4.154724    -1.546687    -3.349958
 H    -4.222609    -2.509818    -3.862752
 C    -5.194597     0.534185    -2.661953
 C    -6.394789     1.429250    -2.552681
 H    -6.125199     2.486300    -2.698715
 H    -7.166743     1.167637    -3.290604
 H    -6.845546     1.342766    -1.549731
 C    -5.268170    -0.709901    -3.298496
 H    -6.207963    -1.022001    -3.762791
 C    -4.311676     0.975582     1.045198
 O    -3.717032     2.185869     0.993506
 C    -4.329883     3.298605     1.576853
 H    -3.582152     4.102860     1.566774
 H    -5.219951     3.626491     1.010782
 H    -4.623073     3.099337     2.621724
 C    -4.152360    -1.376639     0.566825
 O    -3.397433    -2.387840     0.117264
 C    -3.986116    -3.610306    -0.220158
 H    -3.179423    -4.233759    -0.624835
 H    -4.763652    -3.480305    -0.992849
 H    -4.424478    -4.111776     0.660306
 C    -5.523848    -1.521082     0.820427
 H    -6.009515    -2.488005     0.698978
 C    -5.676975     0.838614     1.320752
 H    -6.281851     1.707486     1.578469
 C    -6.265676    -0.416355     1.215598
 H    -7.333282    -0.529847     1.419279
 C    -1.518747     1.359062     2.886004
 O    -2.169534     0.243979     3.260401
 C    -2.485200     0.029399     4.604130
 H    -2.994045    -0.941509     4.650280
 H    -1.580439    -0.008855     5.235277
 H    -3.164164     0.807986     4.994647
 C    -0.564928     2.611978     1.072330
 O    -0.238214     2.690866    -0.239817
 C     0.126897     3.921112    -0.801616
 H     0.229321     3.744379    -1.879336
 H     1.095764     4.284013    -0.420105
 H    -0.641150     4.692396    -0.618853
 C    -0.220318     3.637279     1.965317
 H     0.306835     4.521500     1.609901
 C    -1.171977     2.370478     3.786212
 H    -1.402685     2.274932     4.846446
 C    -0.524259     3.506623     3.312830
 H    -0.244600     4.300427     4.009210
