 110
scf done:    -4189.503302
 C    -0.962697     2.338950    -2.393815
 H    -1.509788     2.061371    -3.301125
 H    -1.463813     3.096211    -1.782226
 C     0.446357     2.257957    -2.372833
 H     0.982045     1.916987    -3.266016
 H     1.020577     2.955030    -1.754186
 H    -0.374295     1.678321    -0.146227
Co    -0.371453     0.754967    -1.292201
 C    -2.973317     1.982454     0.306989
 C    -3.625872    -0.665560    -0.633816
 C    -1.719673    -0.374202     1.497505
 C     1.542296    -1.673346     0.262105
 C     2.864194     0.286395    -1.450222
 C     1.823836     1.002307     1.326203
 P     1.428126     0.099740    -0.260505
 P    -2.163234     0.386566    -0.137924
 C    -0.259072    -0.394271    -2.610515
 O    -0.057375    -1.088599    -3.507102
 C    -2.679512     2.630872     1.509741
 H    -2.064450     2.124199     2.256036
 C    -3.751591     2.678352    -0.641800
 O    -3.989469     2.046748    -1.811925
 C    -4.548383     2.755085    -2.882726
 H    -5.586738     3.066332    -2.674599
 H    -4.548791     2.070471    -3.740396
 H    -3.945663     3.644531    -3.133793
 C    -3.146916     3.913265     1.791095
 H    -2.898795     4.387492     2.742591
 C    -4.227905     3.964211    -0.365387
 H    -4.831784     4.496594    -1.100310
 C    -3.925864     4.576405     0.849197
 H    -4.302391     5.581847     1.051342
 H    -4.248385    -0.799242     0.261684
 H    -4.195845    -0.065600    -1.350510
 C    -3.236020    -1.991159    -1.205848
 C    -3.097393    -3.100479    -0.362504
 H    -3.292244    -2.978269     0.706612
 C    -3.018660    -2.142530    -2.590795
 C    -3.247326    -0.998928    -3.537293
 H    -2.810138    -0.063246    -3.160324
 H    -4.328637    -0.821970    -3.672563
 H    -2.814059    -1.210443    -4.523891
 C    -2.742279    -4.348863    -0.866213
 H    -2.656970    -5.204386    -0.191558
 C    -2.633460    -3.396426    -3.075874
 H    -2.445972    -3.512195    -4.146636
 C    -2.496199    -4.494601    -2.229807
 H    -2.204464    -5.464933    -2.639253
 H    -1.046996    -1.188627     1.197578
 H    -1.051217     0.355665     1.984698
 C    -2.739526    -0.895187     2.474161
 C    -3.967159    -0.256556     2.688527
 H    -4.205291     0.647685     2.126713
 C    -2.440283    -2.060048     3.217981
 C    -1.132638    -2.780962     3.055741
 H    -0.270908    -2.122315     3.248559
 H    -0.998817    -3.171998     2.034221
 H    -1.066308    -3.631082     3.748321
 C    -4.897659    -0.751275     3.599462
 H    -5.848140    -0.231238     3.739899
 C    -3.387481    -2.543665     4.127109
 H    -3.153351    -3.446159     4.698700
 C    -4.609455    -1.904978     4.321155
 H    -5.330609    -2.307685     5.036374
 C     0.596738    -2.545888    -0.287228
 H    -0.200641    -2.127171    -0.905084
 C     2.551739    -2.233323     1.083702
 O     3.486994    -1.405914     1.592100
 C     4.599267    -1.941810     2.258079
 H     4.310870    -2.439789     3.199870
 H     5.259251    -1.096436     2.486634
 H     5.144306    -2.650255     1.613819
 C     0.636772    -3.922238    -0.070467
 H    -0.114393    -4.560627    -0.535182
 C     2.574967    -3.610616     1.330707
 H     3.349200    -4.039297     1.966174
 C     1.628032    -4.449047     0.747171
 H     1.674223    -5.523719     0.940208
 H     2.415738    -0.095844    -2.380040
 H     2.947982     1.372590    -1.588343
 C     4.197798    -0.367421    -1.247614
 C     4.297125    -1.761324    -1.361155
 H     3.399130    -2.337614    -1.594560
 C     5.372888     0.383790    -1.034054
 C     5.379476     1.884247    -1.103226
 H     4.571827     2.351646    -0.525283
 H     5.260866     2.220841    -2.147014
 H     6.331773     2.290484    -0.734557
 C     5.507856    -2.423106    -1.186990
 H     5.551711    -3.511134    -1.279039
 C     6.581599    -0.299375    -0.843770
 H     7.490473     0.283131    -0.667662
 C     6.657480    -1.687731    -0.904213
 H     7.616865    -2.190488    -0.758860
 H     0.868066     0.941717     1.868490
 H     2.546823     0.399236     1.879009
 C     2.271348     2.436732     1.257455
 C     1.386843     3.451058     0.865391
 H     0.364992     3.179942     0.589789
 C     3.576700     2.794620     1.660180
 C     4.553693     1.772544     2.167905
 H     4.675045     0.933734     1.467400
 H     4.219184     1.345699     3.128138
 H     5.541430     2.225300     2.331377
 C     1.780307     4.784671     0.817381
 H     1.066832     5.548549     0.499489
 C     3.955484     4.142107     1.610217
 H     4.968967     4.413849     1.918466
 C     3.077504     5.133774     1.184056
 H     3.402631     6.176470     1.152036
