 100
scf done:    -3734.561609
 C     0.115450     0.739925     3.594600
 H     0.360707     0.000710     4.364953
 H     0.898926     1.487533     3.438713
 C    -1.235712     1.098548     3.377819
 H    -2.022108     0.635751     3.985217
 H    -1.472164     2.120450     3.060653
 H    -0.141902     1.153260     1.149270
Co    -0.562518    -0.073868     1.883549
 C     2.731698     0.486836     1.384378
 C     1.948351    -2.268026     1.424188
 C     1.321002    -0.627441    -0.924442
 C    -2.309198    -0.647827    -1.043345
 C    -3.826896    -0.560546     1.415107
 C    -2.854979     1.855920     0.223149
 P    -2.280629     0.136469     0.626579
 P     1.293889    -0.575580     0.955539
 C    -0.968906    -1.650402     2.508241
 O    -1.225517    -2.715934     2.867143
 H     3.601809     0.113776     0.821426
 H     2.931899     0.298880     2.451754
 C     2.544596     1.975984     1.111723
 H     1.940326     2.122378     0.205365
 H     1.961762     2.436106     1.927678
 C     3.867168     2.724562     0.933500
 H     4.410085     2.222719     0.110885
 C     3.616346     4.164066     0.503884
 H     3.054866     4.198583    -0.442043
 H     4.561393     4.709468     0.354832
 H     3.034315     4.709530     1.266442
 C     4.735501     2.664268     2.184813
 H     5.686815     3.198986     2.037006
 H     4.980455     1.628637     2.466169
 H     4.220621     3.130372     3.042220
 H     1.112847    -2.961964     1.245815
 H     2.074618    -2.212502     2.517440
 C     3.189978    -2.754192     0.751031
 C     4.463202    -2.373914     1.199183
 H     4.553363    -1.750855     2.092124
 C     3.109805    -3.586114    -0.374752
 H     2.129028    -3.922554    -0.722231
 C     5.611600    -2.779250     0.523674
 H     6.592702    -2.465914     0.888673
 C     4.256523    -3.995774    -1.052099
 H     4.166482    -4.640515    -1.929490
 C     5.513336    -3.585097    -0.610864
 H     6.414177    -3.901474    -1.141520
 H     0.329510    -0.268092    -1.220436
 H     1.381043    -1.690318    -1.203297
 C     2.366253     0.163764    -1.652736
 C     3.690262    -0.278532    -1.770874
 H     3.981098    -1.239777    -1.343940
 C     2.021758     1.392316    -2.230657
 H     0.992213     1.751500    -2.154621
 C     4.642883     0.495471    -2.430882
 H     5.669795     0.130122    -2.509689
 C     2.973383     2.168416    -2.887376
 H     2.678350     3.125671    -3.324367
 C     4.291740     1.725269    -2.986410
 H     5.040933     2.332498    -3.499992
 H    -1.624699    -0.056683    -1.674795
 H    -3.315805    -0.528970    -1.475930
 C    -1.867735    -2.102846    -1.010411
 H    -0.947307    -2.169909    -0.407358
 H    -2.611209    -2.714858    -0.467792
 C    -1.615790    -2.729578    -2.382014
 H    -0.883484    -2.085821    -2.905525
 C    -0.993983    -4.111924    -2.225345
 H    -0.057338    -4.065465    -1.647387
 H    -0.765116    -4.566002    -3.201699
 H    -1.677272    -4.793016    -1.691404
 C    -2.880306    -2.789943    -3.231540
 H    -2.675939    -3.231681    -4.219047
 H    -3.314873    -1.792847    -3.397581
 H    -3.649310    -3.411736    -2.742378
 H    -3.890946    -0.055441     2.391067
 H    -3.591555    -1.614949     1.626801
 C    -5.104228    -0.433744     0.648221
 C    -5.489894    -1.412430    -0.278595
 H    -4.868981    -2.302774    -0.406824
 C    -5.936843     0.682216     0.811711
 H    -5.666820     1.447778     1.544266
 C    -6.654505    -1.272439    -1.029993
 H    -6.933409    -2.049959    -1.745455
 C    -7.103022     0.825172     0.063143
 H    -7.736858     1.703017     0.210511
 C    -7.464158    -0.149548    -0.865871
 H    -8.378521    -0.038763    -1.453294
 H    -3.045394     2.334202     1.196024
 H    -3.819645     1.770353    -0.299922
 C    -1.898370     2.676512    -0.584757
 C    -1.981138     2.701413    -1.983708
 H    -2.754134     2.112142    -2.484726
 C    -0.910624     3.453633     0.034720
 H    -0.829557     3.446019     1.123709
 C    -1.112582     3.486301    -2.740754
 H    -1.200363     3.496001    -3.829850
 C    -0.046284     4.244219    -0.718283
 H     0.708899     4.849458    -0.212915
 C    -0.144294     4.265524    -2.109030
 H     0.530584     4.890911    -2.698341
