  58
scf done:    -3108.946570
 C    -3.956437    -1.820155     0.201450
 H    -4.464098    -1.582366     1.143117
 H    -4.577223    -1.660033    -0.686169
 C    -2.972275    -2.838728     0.179399
 H    -2.729853    -3.375863     1.102660
 H    -2.841836    -3.439264    -0.726130
 H    -2.239082    -1.180527    -1.444236
Co    -2.108578    -1.032278     0.036284
 O    -1.646660     2.128523    -0.931431
 C    -3.890228     1.181852    -1.758945
 C    -3.570424     1.877250     0.959421
 O     1.031195    -1.143984     0.482189
 C     0.187871    -3.168584    -1.127758
 C     0.419340    -0.547734    -2.138039
 P    -0.170817    -1.440527    -0.659449
 P    -2.732244     0.949023    -0.376020
 C    -1.728890    -0.881563     1.739761
 O    -1.444805    -0.769863     2.846861
 C    -0.443199     2.435765    -0.390415
 C    -0.018943     1.993730     0.862474
 H    -0.662552     1.358620     1.467922
 C     0.401672     3.242660    -1.165007
 H     0.052642     3.577578    -2.143439
 C     1.245612     2.336422     1.357231
 C     1.694782     1.774986     2.672850
 H     1.778370     0.678467     2.604610
 H     2.672104     2.176577     2.973479
 H     0.969186     1.992722     3.471649
 C     1.646720     3.605568    -0.666418
 H     2.299660     4.245183    -1.265754
 C     2.071907     3.157845     0.586452
 H     3.057939     3.439158     0.964365
 H    -3.425946     0.790488    -2.674082
 H    -4.804416     0.606584    -1.556821
 H    -4.134099     2.245432    -1.892196
 H    -4.478558     1.323833     1.241596
 H    -2.922458     1.939734     1.844834
 H    -3.838259     2.892310     0.631503
 C     2.373293    -1.242779     0.251224
 C     3.066464    -0.154874    -0.282088
 H     2.511772     0.752649    -0.525542
 C     3.056225    -2.405527     0.611624
 H     2.501000    -3.236739     1.049883
 C     4.449961    -0.211447    -0.471492
 C     5.179029     0.958652    -1.066241
 H     5.267038     0.852535    -2.160523
 H     4.645723     1.900102    -0.871066
 H     6.198978     1.045801    -0.664191
 C     4.435737    -2.466154     0.426155
 H     4.979054    -3.369823     0.713246
 C     5.127759    -1.382865    -0.111161
 H     6.211123    -1.442166    -0.244965
 H    -0.020537    -3.822024    -0.269337
 H    -0.488917    -3.450427    -1.947242
 H     1.231657    -3.298227    -1.450768
 H    -0.238502    -0.830288    -2.972346
 H     0.335153     0.535461    -1.979067
 H     1.458774    -0.804736    -2.386431
