  98
scf done:    -4032.372470
 C     0.336656     1.255378    -3.064704
 H     0.617339     2.259513    -2.730152
 H     1.029683     0.823550    -3.794887
 C    -1.017205     0.866415    -3.082993
 H    -1.797985     1.557539    -2.752599
 H    -1.356758     0.131139    -3.819496
 H    -0.434216     1.312682    -0.829455
Co    -0.088428     0.048966    -1.487557
 C    -1.984748     0.662901     1.226950
 C    -3.425606    -0.378680    -1.059660
 C    -1.953204    -2.081481     0.563978
 C     1.871719    -0.221326     1.317859
 C     3.335369    -0.095405    -1.073045
 C     2.045886     2.255569    -0.142636
 P     1.710072     0.456835    -0.392187
 P    -1.774136    -0.426159    -0.239317
 C     0.273137    -1.524429    -2.179378
 O     0.501997    -2.557472    -2.633966
 C    -1.679815     0.216606     2.513355
 H    -1.358372    -0.817423     2.653069
 C    -2.365892     2.012590     1.057055
 O    -2.584370     2.409780    -0.208849
 C    -2.982963     3.724089    -0.473875
 H    -3.954594     3.958197    -0.004438
 H    -3.084471     3.802357    -1.563232
 H    -2.230779     4.454324    -0.130794
 C    -1.770420     1.064009     3.618534
 H    -1.516600     0.689600     4.612061
 C    -2.496619     2.854239     2.165856
 H    -2.826552     3.885446     2.038914
 C    -2.194236     2.375698     3.441880
 H    -2.291446     3.045206     4.300083
 C    -3.542435    -1.053740    -2.277626
 H    -2.661872    -1.525145    -2.719628
 C    -4.561360     0.213902    -0.501049
 H    -4.487406     0.725913     0.461764
 C    -4.776667    -1.130113    -2.917553
 H    -4.863469    -1.665907    -3.866041
 C    -5.804859     0.158393    -1.138294
 C    -7.006404     0.831043    -0.538277
 H    -7.901772     0.194717    -0.606923
 H    -6.842672     1.076677     0.520820
 H    -7.237869     1.772172    -1.064645
 C    -5.897936    -0.524304    -2.356621
 H    -6.862399    -0.583673    -2.869208
 C    -3.161515    -2.464494     1.165357
 H    -4.015101    -1.783618     1.163178
 C    -0.880969    -2.970299     0.564023
 H     0.061112    -2.673317     0.100826
 C    -3.278176    -3.717665     1.752146
 H    -4.221875    -4.015789     2.215787
 C    -0.989405    -4.243834     1.142661
 C     0.178377    -5.185977     1.127645
 H    -0.131892    -6.217603     1.346388
 H     0.682605    -5.177486     0.150183
 H     0.924395    -4.896839     1.886314
 C    -2.199778    -4.603806     1.736453
 H    -2.304998    -5.595080     2.186743
 C     1.715663     0.521077     2.488831
 H     1.504277     1.589080     2.424519
 C     2.161879    -1.596740     1.433750
 O     2.255235    -2.287125     0.274202
 C     3.202360    -3.316257     0.148534
 H     4.200108    -2.971177     0.466078
 H     3.233494    -3.574436    -0.917809
 H     2.923096    -4.213805     0.723898
 C     1.849820    -0.073021     3.744500
 H     1.721918     0.531060     4.645184
 C     2.326129    -2.189552     2.685345
 H     2.573481    -3.249792     2.758654
 C     2.161386    -1.425261     3.840506
 H     2.280797    -1.896596     4.818966
 C     3.428631    -0.511923    -2.399629
 H     2.536416    -0.509055    -3.026123
 C     4.485959    -0.101950    -0.273481
 H     4.416961     0.227395     0.767498
 C     4.653984    -0.942072    -2.910483
 H     4.720104    -1.277539    -3.948428
 C     5.720229    -0.526919    -0.769690
 C     6.947407    -0.507612     0.095813
 H     7.578145     0.367617    -0.132563
 H     6.686112    -0.455582     1.162291
 H     7.567761    -1.402595    -0.063148
 C     5.787107    -0.953269    -2.103987
 H     6.741856    -1.298301    -2.511402
 C     3.204074     2.867546    -0.631404
 H     3.957328     2.279822    -1.156726
 C     1.087676     3.051094     0.503017
 H     0.157690     2.594088     0.851418
 C     3.401676     4.237106    -0.456150
 H     4.307586     4.705261    -0.849305
 C     1.288032     4.417940     0.713054
 C     0.264479     5.251590     1.428959
 H     0.741894     5.971278     2.110929
 H    -0.339347     5.838256     0.715833
 H    -0.421981     4.625506     2.014354
 C     2.461438     5.003733     0.220872
 H     2.632729     6.073922     0.368355
