 100
scf done:    -3583.210917
 C     1.482960    -2.519041    -1.988853
 H     1.325027    -2.590739    -3.070294
 H     2.527695    -2.354303    -1.707144
 C     0.635325    -3.228568    -1.108932
 H    -0.167007    -3.847318    -1.525165
 H     1.029790    -3.603803    -0.160200
 H     1.254894    -1.146665     0.001769
Co     0.225400    -1.242393    -1.055159
 C     3.135998     0.431694    -1.516712
 O     1.153624     1.473185    -2.763010
 O     1.077857     1.610510    -0.204050
 C    -1.940139     0.792167     0.539935
 O    -2.240344    -1.763948     1.067215
 O    -0.273731    -0.507607     2.081227
 P    -1.003237    -0.767602     0.619663
 P     1.313169     0.520103    -1.418712
 C    -1.052908    -1.317952    -2.249758
 O    -1.904296    -1.416529    -3.017728
 H     3.484727     1.434792    -1.813240
 H     3.348551    -0.226480    -2.373368
 C     3.824361    -0.044453    -0.247395
 H     3.386708     0.473982     0.622236
 H     3.608565    -1.114558    -0.086759
 C     5.339188     0.174024    -0.239761
 H     5.515421     1.252921    -0.414944
 C     5.924151    -0.177098     1.122702
 H     5.429577     0.384593     1.930775
 H     7.001876     0.043423     1.166777
 H     5.796225    -1.250488     1.338077
 C     6.037684    -0.600798    -1.351251
 H     7.126333    -0.438296    -1.326226
 H     5.682821    -0.303824    -2.349522
 H     5.859834    -1.683967    -1.240684
 C     0.067280     1.396392    -3.665092
 H     0.390162     1.963315    -4.553422
 H    -0.084805     0.351479    -3.984449
 C    -1.228696     1.969152    -3.126726
 H    -1.982249     1.886790    -3.929965
 H    -1.595400     1.331347    -2.306653
 C    -1.138652     3.406648    -2.639081
 H    -0.691435     4.038682    -3.426769
 H    -0.440326     3.446068    -1.787548
 C    -2.488906     3.970733    -2.227762
 H    -3.184365     4.006498    -3.081696
 H    -2.959215     3.348978    -1.449645
 H    -2.400314     4.991499    -1.826200
 C     1.797146     2.816525    -0.021966
 H     2.883958     2.619418    -0.030038
 H     1.580434     3.512686    -0.850460
 C     1.391554     3.402201     1.313476
 H     1.928573     4.357287     1.450411
 H     0.317678     3.652790     1.279651
 C     1.659826     2.463151     2.482451
 H     2.744105     2.253614     2.534776
 H     1.167476     1.498897     2.278409
 C     1.176950     3.012906     3.814019
 H     1.657959     3.973653     4.060777
 H     0.088385     3.184717     3.797715
 H     1.386710     2.314123     4.638169
 H    -2.547544     0.716577    -0.378999
 H    -1.178410     1.564638     0.357101
 C    -2.809370     1.100577     1.747757
 H    -3.513533     0.266679     1.898515
 H    -2.172602     1.132872     2.648519
 C    -3.595220     2.409998     1.640560
 H    -4.161632     2.383566     0.689640
 C    -4.602750     2.517404     2.779497
 H    -5.297871     1.663474     2.783467
 H    -5.199668     3.439834     2.705571
 H    -4.087626     2.531368     3.754641
 C    -2.683413     3.631229     1.610032
 H    -3.264288     4.561361     1.511592
 H    -1.973166     3.597683     0.770994
 H    -2.096635     3.700055     2.541473
 C    -2.399508    -3.100019     0.627245
 H    -1.788858    -3.262020    -0.274969
 H    -2.023454    -3.782213     1.410462
 C    -3.863920    -3.363847     0.350964
 H    -3.975480    -4.432339     0.095121
 H    -4.435670    -3.206821     1.282587
 C    -4.440409    -2.496907    -0.759117
 H    -3.876887    -2.674259    -1.690801
 H    -4.268203    -1.438149    -0.502771
 C    -5.922216    -2.733870    -0.997264
 H    -6.121635    -3.779780    -1.282017
 H    -6.512094    -2.523166    -0.090442
 H    -6.309980    -2.091903    -1.802634
 C    -0.190098    -1.500208     3.086150
 H     0.074308    -0.958443     4.009003
 H    -1.184047    -1.952846     3.238823
 C     0.841513    -2.570458     2.790094
 H     0.777404    -3.337283     3.582456
 H     0.566750    -3.077512     1.849029
 C     2.262673    -2.039560     2.686729
 H     2.561449    -1.613494     3.661043
 H     2.270751    -1.200911     1.972915
 C     3.263351    -3.096149     2.251298
 H     3.264729    -3.959697     2.936222
 H     3.025702    -3.475276     1.244052
 H     4.287634    -2.696161     2.220639
