  86
scf done:    -3875.289134
 C    -1.322209     3.192869    -0.943091
 H    -0.464102     3.675576    -1.421252
 H    -2.249269     3.207258    -1.523429
 C    -1.360116     3.049461     0.437424
 H    -0.538689     3.442239     1.043559
 H    -2.313760     2.942816     0.963360
 H    -0.739081     1.042660     1.033222
Co    -0.832451     1.234794    -0.429112
 O    -1.989592    -1.570670     0.698541
 C    -3.425457     0.436264     1.521636
 C    -3.689791    -0.527729    -1.124777
 O     2.027524     0.304569    -1.417018
 C     2.099647     2.732294    -0.205091
 C     1.985041     0.319651     1.320931
 P     1.254010     1.111256    -0.156217
 P    -2.403460    -0.043165     0.085676
 C    -0.754790     0.827334    -2.115087
 O    -0.700225     0.543491    -3.229064
 C    -1.111124    -2.423768     0.106672
 C    -0.466027    -3.333450     0.947692
 H    -0.698352    -3.299484     2.014882
 C    -0.849881    -2.435803    -1.266245
 H    -1.360158    -1.748909    -1.939854
 C     0.452262    -4.257632     0.445649
 C     1.176958    -5.183783     1.378623
 H     0.500650    -5.602873     2.138709
 H     1.644006    -6.018734     0.837442
 H     1.977337    -4.646070     1.914332
 C     0.060519    -3.360942    -1.771392
 H     0.267331    -3.369351    -2.843869
 C     0.706531    -4.264823    -0.931630
 H     1.415777    -4.984740    -1.347972
 C    -4.691750     1.004361     1.349872
 C    -2.887222     0.341751     2.811185
 C    -4.871389     1.366438     3.732466
 C    -3.609533     0.797253     3.909797
 C    -5.408692     1.470802     2.451476
 H    -5.125759     1.077406     0.349751
 H    -6.397253     1.912720     2.305409
 H    -5.435755     1.728246     4.595265
 H    -3.183605     0.710408     4.912335
 H    -1.895999    -0.094798     2.952823
 C    -4.401913    -1.725723    -0.987788
 C    -3.985179     0.332674    -2.185816
 C    -5.690154    -1.189662    -2.960293
 C    -4.987463     0.005587    -3.098389
 C    -5.394299    -2.055628    -1.905987
 H    -4.166441    -2.396994    -0.158825
 H    -5.941932    -2.995250    -1.799938
 H    -6.469509    -1.451740    -3.680025
 H    -5.212386     0.683303    -3.925213
 H    -3.420338     1.261416    -2.296924
 C     3.240883    -0.315695    -1.291389
 C     3.284663    -1.613588    -0.785284
 H     2.346269    -2.098334    -0.508443
 C     4.413196     0.341370    -1.666730
 H     4.361398     1.355832    -2.063667
 C     4.505673    -2.270170    -0.613004
 C     4.541855    -3.639203     0.000794
 H     3.733693    -4.273800    -0.390998
 H     5.501380    -4.142738    -0.183523
 H     4.400463    -3.575177     1.092667
 C     5.631189    -0.317065    -1.513526
 H     6.555983     0.185565    -1.807541
 C     5.680414    -1.606024    -0.985343
 H     6.644419    -2.106731    -0.862303
 C     2.409815     3.295411    -1.450356
 C     2.262557     3.504838     0.951545
 C     3.077565     5.353452    -0.374875
 C     2.752139     4.807228     0.865524
 C     2.904146     4.594594    -1.532800
 H     2.261221     2.702924    -2.356949
 H     3.152378     5.019542    -2.508485
 H     3.463189     6.373556    -0.440439
 H     2.882289     5.398009     1.775503
 H     2.015851     3.081295     1.928906
 C     1.217151    -0.600736     2.038655
 C     3.330844     0.506497     1.669729
 C     3.119071    -1.142072     3.421802
 C     3.892371    -0.219613     2.715526
 C     1.780332    -1.330449     3.083781
 H     0.173470    -0.748892     1.758415
 H     1.170073    -2.051928     3.632323
 H     3.563225    -1.714315     4.240268
 H     4.943249    -0.070998     2.973972
 H     3.948019     1.211735     1.109679
