 104
scf done:    -4035.347268
 C    -0.766236     0.702675    -3.555299
 H    -1.285773    -0.012178    -4.202293
 H    -1.373594     1.572339    -3.284772
 C     0.637566     0.823144    -3.627157
 H     1.210356     0.193531    -4.314662
 H     1.111775     1.782595    -3.402566
 H     0.031501     1.174024    -1.304085
Co     0.108492    -0.158120    -1.946901
 C    -2.753675     0.936440    -0.485512
 O    -2.257419    -1.714970    -0.380133
 O    -0.789119    -0.213702     1.006468
 C     2.242233    -1.831447     0.040332
 O     3.265245     0.030081    -1.740662
 O     2.091259     0.735340     0.452251
 P     1.888727    -0.276986    -0.851148
 P    -1.398130    -0.282947    -0.546290
 C     0.084328    -1.794700    -2.580565
 O     0.027094    -2.870196    -2.976715
 H    -3.392904     0.687730     0.378674
 H    -3.362750     0.760965    -1.386257
 C    -2.269018     2.378085    -0.410843
 H    -1.474151     2.468642     0.347677
 H    -1.787737     2.658273    -1.362977
 C    -3.382020     3.378934    -0.092192
 H    -3.835336     3.071227     0.869883
 C    -2.798699     4.774087     0.091547
 H    -2.033989     4.784985     0.882253
 H    -3.578229     5.505260     0.356435
 H    -2.315038     5.120681    -0.836988
 C    -4.480873     3.375850    -1.148807
 H    -5.262431     4.113718    -0.910126
 H    -4.970693     2.394311    -1.236054
 H    -4.069444     3.635061    -2.139111
 C    -3.534144    -1.902431    -0.827854
 C    -3.795108    -2.043398    -2.191609
 H    -2.966359    -1.998684    -2.901204
 C    -4.579611    -1.967534     0.092703
 H    -4.355010    -1.851252     1.155339
 C    -5.103470    -2.239435    -2.624827
 H    -5.299388    -2.344021    -3.695674
 C    -5.881305    -2.170856    -0.357506
 H    -6.695770    -2.217505     0.370968
 C    -6.170279    -2.308609    -1.720469
 C    -7.573183    -2.555002    -2.195520
 H    -7.745278    -2.117391    -3.189782
 H    -8.314077    -2.129888    -1.502921
 H    -7.781481    -3.635344    -2.274490
 C    -1.539102    -0.373813     2.139858
 C    -1.803001    -1.654896     2.627834
 H    -1.436731    -2.517740     2.070603
 C    -2.005526     0.742248     2.833731
 H    -1.786938     1.739678     2.448686
 C    -2.535930    -1.808607     3.800306
 H    -2.739165    -2.817076     4.171701
 C    -2.738305     0.571248     4.006537
 H    -3.101417     1.453549     4.540931
 C    -3.018893    -0.702462     4.512232
 C    -3.784094    -0.882542     5.791329
 H    -3.102565    -1.066514     6.638703
 H    -4.468397    -1.742195     5.734280
 H    -4.377700     0.009996     6.035380
 H     2.568745    -2.548184    -0.734225
 H     1.232103    -2.151330     0.342437
 C     3.177005    -1.829189     1.240993
 H     4.191689    -1.541207     0.929293
 H     2.842339    -1.055361     1.950840
 C     3.249646    -3.177765     1.962868
 H     3.546059    -3.941601     1.218780
 C     4.331005    -3.129636     3.036426
 H     5.308697    -2.861199     2.606521
 H     4.437840    -4.099654     3.546559
 H     4.086086    -2.374778     3.802245
 C     1.908852    -3.595196     2.558610
 H     1.995248    -4.550982     3.098342
 H     1.132161    -3.724645     1.789650
 H     1.545106    -2.837476     3.273046
 C     4.534041    -0.168496    -1.261550
 C     5.237498    -1.303883    -1.660133
 H     4.764176    -2.003484    -2.352006
 C     5.123218     0.748405    -0.390899
 H     4.567412     1.636710    -0.087562
 C     6.516037    -1.535236    -1.160330
 H     7.055909    -2.434614    -1.469473
 C     6.401944     0.502145     0.099711
 H     6.851657     1.218644     0.792782
 C     7.120501    -0.642843    -0.266900
 C     8.508127    -0.884715     0.253007
 H     8.756806    -1.955792     0.255313
 H     8.626005    -0.504859     1.278471
 H     9.260637    -0.374941    -0.371922
 C     1.701747     2.036938     0.508644
 C     1.902673     2.924037    -0.552218
 H     2.362317     2.565767    -1.475341
 C     1.116117     2.487636     1.690167
 H     0.956642     1.774235     2.500109
 C     1.512995     4.253289    -0.418152
 H     1.671730     4.938032    -1.256064
 C     0.743490     3.823957     1.810227
 H     0.290384     4.168759     2.744302
 C     0.933470     4.733158     0.762763
 C     0.554962     6.179513     0.900522
 H    -0.037635     6.524636     0.039427
 H     1.449462     6.821322     0.957726
 H    -0.037462     6.356463     1.809410
