 102
scf done:    -4333.251341
 C     0.976724     0.211652     3.361919
 H     1.821745    -0.479513     3.313663
 H     1.204667     1.164120     3.849210
 C    -0.334023    -0.284556     3.346484
 H    -0.511141    -1.361575     3.279248
 H    -1.146709     0.269350     3.824805
 H     0.608314    -0.871410     1.195600
Co     0.148945     0.493871     1.522127
 O    -2.574104    -1.123467     0.853027
 O    -2.190845     1.017190    -0.485836
 O    -1.043531    -1.098003    -1.042120
 O     1.827886     2.251567    -0.602864
 O     3.149842     1.479395     1.331171
 O     2.550220    -0.089211    -0.587013
 P     1.854370     0.995087     0.455171
 P    -1.351721    -0.162418     0.271771
 C    -0.500469     2.106580     1.829991
 O    -0.960087     3.135928     2.029789
 C    -3.236695    -0.844666     2.017505
 C    -3.608719     0.455142     2.353041
 H    -3.389079     1.276418     1.668643
 C    -3.532846    -1.912055     2.864727
 H    -3.233013    -2.919772     2.571964
 C    -4.258049     0.716650     3.564906
 C    -4.641491     2.125728     3.912023
 H    -3.797934     2.815551     3.755594
 H    -5.468199     2.476246     3.272793
 H    -4.966933     2.210497     4.958081
 C    -4.191097    -1.657049     4.062489
 H    -4.424388    -2.485005     4.736250
 C    -4.542350    -0.353904     4.417705
 H    -5.047053    -0.165982     5.368623
 C    -3.377263     0.966117    -1.171050
 C    -3.880919    -0.179109    -1.783442
 H    -3.337446    -1.120391    -1.725220
 C    -4.086278     2.166284    -1.241764
 H    -3.662719     3.048519    -0.758744
 C    -5.093958    -0.104419    -2.468347
 H    -5.482874    -1.008022    -2.945760
 C    -5.290203     2.220200    -1.931539
 H    -5.832951     3.168404    -1.983176
 C    -5.820538     1.085024    -2.560252
 C    -7.132676     1.149295    -3.286938
 H    -7.318549     0.232027    -3.863193
 H    -7.165699     2.000286    -3.984852
 H    -7.972312     1.275438    -2.583666
 C    -0.639342    -2.402352    -1.091670
 C    -0.477299    -2.941408    -2.369226
 H    -0.662964    -2.301990    -3.233904
 C    -0.415100    -3.197723     0.031182
 H    -0.548531    -2.793269     1.033696
 C    -0.097905    -4.269468    -2.518342
 H     0.016469    -4.679633    -3.525813
 C    -0.025306    -4.524243    -0.140836
 H     0.151547    -5.136648     0.747452
 C     0.138030    -5.089560    -1.407843
 C     0.578621    -6.513871    -1.580433
 H     1.646781    -6.571944    -1.849721
 H     0.015689    -7.017231    -2.380954
 H     0.442974    -7.092462    -0.655517
 C     0.767143     2.449265    -1.454683
 C     0.431473     1.492070    -2.408855
 H     1.019113     0.574821    -2.466925
 C     0.051507     3.638906    -1.348230
 H     0.335120     4.366718    -0.586488
 C    -0.649950     1.703481    -3.269100
 C    -1.068666     0.637924    -4.237213
 H    -0.218617     0.008732    -4.538266
 H    -1.822660    -0.017203    -3.770101
 H    -1.521929     1.066740    -5.142393
 C    -1.009464     3.861820    -2.220681
 H    -1.576927     4.793262    -2.152468
 C    -1.361288     2.903554    -3.168806
 H    -2.210522     3.082074    -3.832842
 C     4.328879     1.946062     0.783286
 C     4.489679     3.313747     0.573047
 H     3.663164     3.986834     0.804319
 C     5.361669     1.061909     0.491200
 H     5.224382    -0.007253     0.660671
 C     5.694526     3.791359     0.070591
 H     5.815971     4.866253    -0.090478
 C     6.562461     1.557496    -0.013564
 H     7.372051     0.858455    -0.240175
 C     6.752547     2.924710    -0.235015
 C     8.039582     3.453961    -0.798736
 H     8.406818     4.317022    -0.222371
 H     7.907605     3.792526    -1.839649
 H     8.825895     2.686033    -0.797281
 C     2.833468    -1.393852    -0.301624
 C     2.813683    -2.298542    -1.362254
 H     2.548218    -1.939812    -2.357549
 C     3.175970    -1.832575     0.978332
 H     3.220219    -1.123454     1.806003
 C     3.130135    -3.632303    -1.138127
 H     3.111599    -4.328911    -1.980062
 C     3.476088    -3.177397     1.186387
 H     3.739357    -3.509197     2.194614
 C     3.457278    -4.102839     0.139685
 C     3.739613    -5.556477     0.382623
 H     4.194256    -6.033160    -0.498317
 H     2.810034    -6.106976     0.606346
 H     4.417795    -5.700631     1.236217
