  90
scf done:    -4572.797081
 C    -1.341895    -0.592647    -3.095469
 H    -1.954958    -1.485513    -3.250282
 H    -1.896971     0.349299    -3.093643
 C     0.019720    -0.612362    -3.431667
 H     0.467957    -1.517630    -3.853350
 H     0.525450     0.315605    -3.709883
 H    -0.147384     0.752189    -1.392276
Co    -0.209293    -0.730294    -1.410204
 C    -1.234491     0.707549     1.561663
 O    -2.829893     0.779132    -0.628857
 O    -2.527577    -1.370417     0.775383
 C     2.845800    -1.755074    -0.268302
 O     2.811765     0.342501    -1.761312
 O     1.799706     0.603870     0.591016
 P     1.722983    -0.400579    -0.731458
 P    -1.622372    -0.176125     0.009435
 C    -0.169047    -2.488070    -1.282250
 O    -0.075921    -3.626261    -1.187918
 C    -1.322308     0.071279     2.800604
 H    -1.675838    -0.959391     2.829917
 C    -0.818350     2.052713     1.520247
 O    -0.771410     2.627151     0.305692
 C    -0.606910     4.015610     0.206941
 H    -1.381555     4.551443     0.781105
 H    -0.714689     4.263303    -0.856047
 H     0.391874     4.335834     0.550859
 C    -1.011432     0.739648     3.983791
 H    -1.098770     0.225414     4.942950
 C    -0.507969     2.727952     2.704318
 H    -0.188768     3.769473     2.677687
 C    -0.604545     2.069140     3.927763
 H    -0.357933     2.609205     4.844849
 C    -3.669632     1.602593     0.064818
 C    -4.338356     1.196517     1.221674
 H    -4.191402     0.185623     1.602120
 C    -3.862685     2.889342    -0.440983
 H    -3.332603     3.175708    -1.350714
 C    -5.184751     2.085962     1.879564
 H    -5.714850     1.794193     2.787843
 C    -4.713831     3.777229     0.209576
 H    -4.884013     4.786604    -0.169605
 C    -5.360710     3.365423     1.369486
 F    -6.171111     4.216490     2.001026
 C    -3.002280    -2.464154     0.109995
 C    -3.693668    -2.345235    -1.097486
 H    -3.856150    -1.356420    -1.528464
 C    -2.803219    -3.719753     0.683840
 H    -2.255959    -3.790409     1.625158
 C    -4.166608    -3.487051    -1.738962
 H    -4.704688    -3.422175    -2.686313
 C    -3.283482    -4.861494     0.051129
 H    -3.134355    -5.855129     0.476875
 C    -3.955160    -4.731425    -1.158690
 F    -4.409225    -5.824089    -1.772379
 C     4.003756    -2.062178    -0.983831
 H     4.287207    -1.420919    -1.819024
 C     2.467348    -2.577629     0.810719
 O     1.338816    -2.217836     1.452581
 C     0.841590    -3.033939     2.476320
 H     0.622174    -4.050713     2.108337
 H    -0.088007    -2.565387     2.819246
 H     1.544413    -3.094044     3.324767
 C     4.785700    -3.162770    -0.638998
 H     5.690655    -3.390324    -1.205519
 C     3.248136    -3.682002     1.158924
 H     2.964591    -4.322276     1.993926
 C     4.403040    -3.965266     0.431391
 H     5.008269    -4.830814     0.711364
 C     2.565763     1.471049    -2.483699
 C     3.056521     1.518713    -3.790387
 H     3.570433     0.643425    -4.191291
 C     1.896718     2.572149    -1.944413
 H     1.519371     2.524303    -0.922930
 C     2.880811     2.661295    -4.563635
 H     3.254504     2.719158    -5.587370
 C     1.715612     3.714874    -2.720715
 H     1.201418     4.592994    -2.326544
 C     2.207300     3.748462    -4.018657
 F     2.033297     4.846671    -4.755189
 C     2.833978     0.666164     1.484219
 C     4.148036     0.910727     1.082040
 H     4.373981     1.035422     0.022610
 C     2.526696     0.502680     2.834866
 H     1.490057     0.315490     3.116328
 C     5.158911     0.986115     2.037505
 H     6.195603     1.172297     1.751701
 C     3.533914     0.585266     3.790964
 H     3.319941     0.465936     4.854670
 C     4.840591     0.822443     3.379488
 F     5.808949     0.896763     4.294533
