 106
scf done:    -3737.386368
 C     0.413956     1.258730    -3.044798
 H     1.029352     2.157856    -3.163361
 H     0.827803     0.369246    -3.526266
 C    -0.986085     1.386909    -2.887334
 H    -1.441499     2.383860    -2.888489
 H    -1.645553     0.601968    -3.271222
 H    -0.334569    -0.530119    -1.575805
Co    -0.117670     0.872179    -1.146181
 C     1.941461    -1.792751    -0.398942
 C     3.285127     0.625395    -1.092216
 C     1.962606     0.409285     1.437634
 C    -1.510273    -1.066482     1.264386
 C    -2.546826     1.584628     1.106802
 C    -3.263326    -0.289363    -0.922521
 P    -1.793641     0.273861     0.034903
 P     1.696707     0.032588    -0.352380
 C     0.075438     2.463235    -0.454530
 O     0.176353     3.484710     0.075090
 C     1.913742    -2.579851     0.752870
 H     1.712321    -2.115409     1.718942
 C     2.141744    -2.445631    -1.636638
 O     2.120935    -1.665224    -2.734797
 C     2.216752    -2.247774    -4.003371
 H     3.190938    -2.744547    -4.155879
 H     2.114700    -1.430979    -4.729048
 H     1.409508    -2.980632    -4.175637
 C     2.122353    -3.960221     0.709808
 H     2.096897    -4.540987     1.633917
 C     2.354698    -3.826518    -1.688214
 H     2.526326    -4.323137    -2.643275
 C     2.355852    -4.577937    -0.511704
 H     2.533401    -5.654933    -0.563809
 H     3.264945     0.316186    -2.146883
 H     4.113140     0.084528    -0.607365
 C     3.451707     2.133082    -0.987910
 H     2.586195     2.611072    -1.473024
 H     3.420424     2.455847     0.068863
 C     4.735287     2.675932    -1.621009
 H     4.763068     2.317981    -2.667737
 C     4.705768     4.199775    -1.646518
 H     3.822646     4.575448    -2.186078
 H     5.602734     4.613260    -2.133551
 H     4.665341     4.606721    -0.622186
 C     5.989499     2.169350    -0.917043
 H     6.900183     2.576726    -1.383221
 H     6.067517     1.072162    -0.944422
 H     5.992323     2.478440     0.142303
 H     1.151485    -0.110032     1.974563
 H     1.718930     1.479461     1.528388
 C     3.320146     0.103416     2.057042
 H     3.699386    -0.862871     1.685292
 H     4.056345     0.858511     1.728480
 C     3.306155     0.059592     3.587426
 H     2.582719    -0.724769     3.884258
 C     4.675988    -0.339511     4.122369
 H     5.003220    -1.306070     3.708161
 H     4.671632    -0.426156     5.220151
 H     5.435926     0.412511     3.851373
 C     2.839823     1.376169     4.198430
 H     2.847691     1.329140     5.298532
 H     1.817906     1.637527     3.885406
 H     3.503440     2.203967     3.895849
 C    -1.297873    -0.776649     2.615626
 H    -1.367346     0.256976     2.959215
 C    -1.397239    -2.411617     0.852572
 O    -1.584380    -2.650578    -0.457843
 C    -1.361402    -3.935335    -0.970212
 H    -0.334951    -4.278117    -0.763064
 H    -1.500141    -3.862109    -2.056272
 H    -2.083656    -4.667003    -0.566997
 C    -0.988992    -1.771739     3.543781
 H    -0.824873    -1.510405     4.591198
 C    -1.115835    -3.417871     1.782116
 H    -1.034896    -4.455523     1.459384
 C    -0.907712    -3.094655     3.121348
 H    -0.679062    -3.889586     3.835361
 H    -1.722684     2.015510     1.699182
 H    -3.259609     1.135474     1.816131
 C    -3.199192     2.685392     0.276854
 H    -2.597598     2.859227    -0.631522
 H    -4.189413     2.345698    -0.077088
 C    -3.364831     4.016504     1.011763
 H    -2.353648     4.338966     1.322311
 C    -3.922092     5.075645     0.068802
 H    -3.279390     5.198776    -0.816679
 H    -4.002938     6.054912     0.565766
 H    -4.929372     4.797436    -0.284687
 C    -4.228252     3.882851     2.260781
 H    -4.337826     4.850606     2.774598
 H    -3.801147     3.171540     2.983925
 H    -5.240236     3.527802     2.000695
 H    -2.889881    -1.041652    -1.630544
 H    -3.546940     0.589667    -1.521869
 C    -4.432729    -0.827662    -0.116656
 H    -4.074110    -1.629908     0.549632
 H    -4.832670    -0.040073     0.548197
 C    -5.583657    -1.376801    -0.964085
 H    -5.160090    -2.159264    -1.622244
 C    -6.633210    -2.031232    -0.073258
 H    -6.193850    -2.827497     0.547862
 H    -7.447588    -2.475228    -0.666921
 H    -7.084638    -1.290404     0.607937
 C    -6.212298    -0.307485    -1.850657
 H    -7.046707    -0.718567    -2.440008
 H    -5.488335     0.122241    -2.558896
 H    -6.613061     0.519055    -1.239137
