 118
scf done:    -4790.849468
 C     1.371238    -1.371540    -2.828147
 H     1.929243    -0.754071    -3.536290
 H     1.950572    -2.186742    -2.386728
 C    -0.025858    -1.475119    -2.913835
 H    -0.571890    -0.942898    -3.699171
 H    -0.538028    -2.359762    -2.527109
 H     0.637827    -1.407785    -0.525510
Co     0.484759    -0.226136    -1.399058
 O     3.157919    -0.959074     0.311102
 C     3.464223     1.461463    -0.531480
 C     1.567854     0.968641     1.482611
 O    -1.849187     1.437529    -0.080354
 C    -2.948119    -0.691443    -1.315797
 C    -1.444413    -1.040028     1.191032
 P    -1.404712    -0.145362    -0.421087
 P     2.103151     0.259306    -0.136018
 C     0.334609     1.316106    -2.214881
 O     0.216695     2.360936    -2.688141
 C     3.103298    -2.285079     0.052542
 C     4.079614    -2.815464    -0.794312
 H     4.786473    -2.120606    -1.254014
 C     2.171742    -3.131511     0.661370
 H     1.420184    -2.708310     1.325148
 C     4.152639    -4.187476    -1.048236
 C     5.186565    -4.729577    -1.992990
 H     6.170304    -4.266836    -1.821871
 H     5.297354    -5.818387    -1.888737
 H     4.909226    -4.522555    -3.039988
 C     2.256156    -4.501360     0.426135
 H     1.556643    -5.174349     0.930000
 C     3.228981    -5.030721    -0.420306
 H     3.278305    -6.109367    -0.591595
 C     4.325247     1.926769     0.488142
 O     4.217298     1.337898     1.689236
 C     4.797057     1.925225     2.816191
 H     4.435468     1.354124     3.681204
 H     5.899939     1.875153     2.788565
 H     4.484597     2.977265     2.933423
 C     3.678868     1.959440    -1.832302
 O     2.974326     1.399133    -2.829214
 C     3.007096     1.956544    -4.110329
 H     2.305920     1.371135    -4.719081
 H     4.012448     1.890290    -4.561921
 H     2.677359     3.009293    -4.105349
 C     4.604620     2.985112    -2.075115
 H     4.739283     3.383049    -3.079572
 C     5.251833     2.950803     0.251492
 H     5.890995     3.316339     1.054170
 C     5.369018     3.478999    -1.027190
 H     6.090285     4.277816    -1.216859
 C     1.606248     0.322521     2.728641
 O     1.935663    -0.980291     2.733875
 C     2.181958    -1.635218     3.942406
 H     2.489611    -2.656079     3.680547
 H     2.995987    -1.149727     4.509419
 H     1.278983    -1.686614     4.574274
 C     1.119534     2.300608     1.443683
 O     1.052811     2.848517     0.218421
 C     0.506419     4.124221     0.048781
 H     0.455037     4.289999    -1.033983
 H     1.141011     4.902425     0.508149
 H    -0.510685     4.182735     0.470781
 C     0.821629     3.008947     2.614080
 H     0.503641     4.049678     2.570287
 C     1.320807     1.025549     3.907757
 H     1.381476     0.528469     4.875133
 C     0.951571     2.364768     3.837593
 H     0.739973     2.912823     4.759367
 C    -3.096609     1.919850     0.118552
 C    -4.098502     1.203816     0.775213
 H    -3.888462     0.199871     1.146948
 C    -3.362125     3.204325    -0.367114
 H    -2.569023     3.732316    -0.899220
 C    -5.372794     1.751925     0.947530
 C    -6.450280     0.932879     1.599139
 H    -6.055397     0.345363     2.442012
 H    -7.271553     1.561438     1.972388
 H    -6.881695     0.216991     0.878745
 C    -4.622803     3.760690    -0.178199
 H    -4.830034     4.766479    -0.552922
 C    -5.626219     3.043071     0.473248
 H    -6.616510     3.485786     0.608362
 C    -3.922470    -1.617213    -0.881726
 O    -3.849009    -2.047768     0.391411
 C    -4.787836    -2.949127     0.897144
 H    -4.482497    -3.155829     1.931344
 H    -5.807059    -2.523846     0.896523
 H    -4.798356    -3.897538     0.331836
 C    -3.158904    -0.099831    -2.581830
 O    -2.326592     0.900327    -2.909206
 C    -2.495537     1.587895    -4.117012
 H    -1.713581     2.355410    -4.139083
 H    -3.486212     2.071052    -4.168157
 H    -2.371416     0.920441    -4.987595
 C    -4.198011    -0.506988    -3.427604
 H    -4.326179    -0.052351    -4.408289
 C    -4.962330    -2.033492    -1.723904
 H    -5.692250    -2.764570    -1.379983
 C    -5.078710    -1.487245    -2.994643
 H    -5.890012    -1.812913    -3.649979
 C    -1.290211    -2.439035     1.114848
 O    -1.256935    -2.936018    -0.133023
 C    -1.330785    -4.314916    -0.349634
 H    -1.394248    -4.453912    -1.436164
 H    -0.432199    -4.835360     0.016986
 H    -2.227330    -4.750264     0.125595
 C    -1.549541    -0.455979     2.462791
 O    -1.707455     0.875731     2.527779
 C    -2.235896     1.454669     3.685268
 H    -2.405396     2.512483     3.448841
 H    -1.537442     1.392082     4.535635
 H    -3.197411     0.988137     3.963608
 C    -1.507773    -1.255147     3.618676
 H    -1.593266    -0.794844     4.602124
 C    -1.227920    -3.237483     2.258184
 H    -1.105394    -4.317301     2.180114
 C    -1.340982    -2.627789     3.505854
 H    -1.299126    -3.240810     4.409768
