  90
scf done:    -4572.867195
 C     0.480173     0.690006     3.884277
 H     1.070717     0.002053     4.497332
 H     0.968242     1.647741     3.686401
 C    -0.916983     0.579782     3.853287
 H    -1.425232    -0.202099     4.424977
 H    -1.535393     1.456090     3.641996
 H    -0.228831     1.220675     1.616143
Co    -0.110516    -0.160374     2.133186
 O     1.380103     0.708203    -0.597446
 O     2.643013     1.155846     1.575817
 O     2.418977    -1.210126     0.552954
 O    -3.247309    -0.424062     1.906284
 O    -2.106465     0.734914    -0.105709
 O    -2.114819    -1.808179     0.183898
 P    -1.858583    -0.402654     1.052011
 P     1.532637     0.107732     0.939261
 C     0.177427    -1.813798     2.670618
 O     0.393117    -2.879953     3.027175
 C     0.754798     1.867361    -0.965827
 C     0.737467     3.001823    -0.157412
 H     1.234251     2.983704     0.813999
 C     0.156469     1.883956    -2.227421
 H     0.192533     0.983496    -2.841309
 C     0.095096     4.169055    -0.592487
 C     0.075157     5.379790     0.294894
 H    -0.404519     5.155616     1.260880
 H     1.097048     5.725984     0.516634
 H    -0.470030     6.212488    -0.170518
 C    -0.472817     3.042316    -2.662975
 H    -0.950092     3.060038    -3.645390
 C    -0.509424     4.177597    -1.851650
 H    -1.012037     5.082086    -2.203133
 C     3.954675     1.321468     1.203191
 C     4.315422     1.726183    -0.082799
 H     3.546844     1.914903    -0.831716
 C     4.930300     1.093428     2.172295
 H     4.615867     0.791273     3.172787
 C     5.661685     1.856654    -0.409313
 H     5.973659     2.151075    -1.412613
 C     6.277035     1.235299     1.851882
 H     7.061276     1.057094     2.589665
 C     6.626475     1.603625     0.558435
 F     7.914824     1.723839     0.241323
 C     3.500866    -1.355997    -0.287376
 C     4.720244    -1.729675     0.274640
 H     4.788450    -1.858211     1.355477
 C     3.377061    -1.194669    -1.665698
 H     2.412597    -0.914690    -2.083015
 C     5.833305    -1.911040    -0.539043
 H     6.803061    -2.188888    -0.122992
 C     4.487904    -1.379993    -2.483596
 H     4.419038    -1.262121    -3.566270
 C     5.704273    -1.728284    -1.911112
 F     6.769914    -1.897454    -2.693564
 C    -4.546006    -0.596872     1.476405
 C    -4.997481    -1.852580     1.085157
 H    -4.301376    -2.692206     1.103416
 C    -5.395308     0.507588     1.481068
 H    -5.009896     1.477224     1.799071
 C    -6.315279    -2.018159     0.642719
 C    -6.803447    -3.374689     0.223636
 H    -6.073133    -3.881875    -0.424861
 H    -6.962394    -4.023801     1.100361
 H    -7.757129    -3.309923    -0.318552
 C    -6.703883     0.345896     1.041422
 H    -7.376029     1.206704     1.019400
 C    -7.158721    -0.902798     0.617560
 H    -8.187160    -1.014564     0.264999
 C    -3.213333     1.046564    -0.854134
 C    -3.532782     2.399621    -0.956000
 H    -2.895425     3.124668    -0.448038
 C    -3.978979     0.086762    -1.518583
 H    -3.733849    -0.970533    -1.427418
 C    -4.639826     2.799273    -1.697329
 H    -4.913747     3.851776    -1.789140
 C    -5.092246     0.484576    -2.253225
 H    -5.722710    -0.247667    -2.759879
 C    -5.413013     1.833624    -2.330968
 F    -6.482739     2.211298    -3.031899
 C    -1.121981    -2.286255    -0.637933
 C    -0.388507    -3.403523    -0.240390
 H    -0.597199    -3.861697     0.726911
 C    -0.869441    -1.681163    -1.870123
 H    -1.444077    -0.805193    -2.171641
 C     0.605496    -3.915659    -1.069024
 H     1.204824    -4.777731    -0.772348
 C     0.113531    -2.199717    -2.707718
 H     0.326349    -1.750638    -3.679861
 C     0.845301    -3.305958    -2.293743
 F     1.804831    -3.781078    -3.085226
