  62
scf done:    -3409.621056
 C    -1.137793    -3.316406     1.047035
 H    -1.629950    -3.987562     0.335632
 H    -0.154519    -3.656795     1.380913
 C    -1.914313    -2.464083     1.852761
 H    -3.006150    -2.492268     1.771781
 H    -1.545472    -2.145436     2.832210
 H     0.111866    -1.238303     1.323636
Co    -0.998348    -1.413366     0.367137
 C     2.042406    -0.203381    -0.508814
 O     1.671912    -2.887035    -0.221427
 O     0.896030    -1.651542    -2.305015
 C    -0.619166     1.957416     0.159199
 O    -2.843292     1.124161     1.296430
 O    -0.694769     0.804775     2.570792
 P    -1.320052     0.533359     1.068547
 P     0.813140    -1.549396    -0.647406
 C    -2.200076    -1.515114    -0.895158
 O    -2.990271    -1.578958    -1.732722
 C     2.341497     0.622317    -1.594125
 H     1.856079     0.417394    -2.548977
 C     2.661120     0.055924     0.731000
 O     2.365404    -0.790869     1.735186
 C     2.661366    -0.434131     3.056308
 H     3.748867    -0.421829     3.246382
 H     2.197068    -1.196853     3.693554
 H     2.232481     0.549704     3.310119
 C     3.239102     1.680699    -1.469026
 H     3.455536     2.317702    -2.328670
 C     3.555861     1.122548     0.862590
 H     4.038765     1.321625     1.819715
 C     3.844372     1.923668    -0.240475
 H     4.549006     2.751624    -0.128875
 C     3.003876    -3.065360    -0.643548
 H     3.143812    -2.759145    -1.693290
 H     3.697938    -2.490036    -0.009092
 H     3.240415    -4.134886    -0.548051
 C     0.140880    -2.646498    -2.955534
 H     0.230393    -3.621355    -2.447264
 H    -0.924881    -2.376721    -3.015409
 H     0.537561    -2.745475    -3.976203
 C     0.436399     2.722966     0.649195
 H     0.846476     2.486169     1.632245
 C    -1.112155     2.228288    -1.132036
 O    -2.119755     1.436523    -1.553694
 C    -2.530074     1.493143    -2.892350
 H    -3.011461     2.457199    -3.131778
 H    -3.254454     0.680889    -3.027494
 H    -1.681315     1.333283    -3.579593
 C     0.982408     3.763444    -0.102182
 H     1.809472     4.351743     0.299220
 C    -0.561213     3.259361    -1.896369
 H    -0.941178     3.475216    -2.895201
 C     0.477946     4.027786    -1.369937
 H     0.899486     4.836981    -1.971326
 C    -4.004613     0.436183     0.906686
 H    -3.924513    -0.644103     1.101491
 H    -4.841715     0.844372     1.491571
 H    -4.206788     0.588583    -0.164868
 C    -1.186297     1.837130     3.398716
 H    -1.237493     2.805886     2.874688
 H    -2.192558     1.596891     3.773857
 H    -0.494973     1.925132     4.249245
