 112
scf done:    -3891.705496
 C    -0.075047     0.354032    -3.820741
 H    -0.345060    -0.467697    -4.493041
 H    -0.851103     1.119714    -3.728180
 C     1.282924     0.727298    -3.686363
 H     2.050126     0.191605    -4.257160
 H     1.531875     1.777341    -3.496733
 H     0.242852     1.044836    -1.454916
Co     0.650432    -0.260389    -2.047602
 C    -2.638391     0.334496    -1.535784
 C    -1.831411    -2.400023    -1.280237
 C    -1.168132    -0.493062     0.850358
 C     2.457496    -0.501971     0.881068
 C     3.935699    -0.650703    -1.600403
 C     2.952151     1.861922    -0.648652
 P     2.391602     0.103724    -0.861242
 P    -1.180462    -0.660832    -1.023474
 C     1.057060    -1.896561    -2.492391
 O     1.319509    -2.994839    -2.728011
 H    -3.488333     0.016642    -0.911833
 H    -2.862996     0.025157    -2.569356
 C    -2.466962     1.847727    -1.434788
 H    -1.788624     2.102084    -0.607995
 H    -1.971823     2.231007    -2.343249
 C    -3.790561     2.583591    -1.215488
 H    -4.234602     2.169225    -0.291145
 C    -3.550416     4.068785    -0.980486
 H    -2.897475     4.227141    -0.109043
 H    -4.495179     4.604114    -0.796505
 H    -3.068208     4.535800    -1.856323
 C    -4.772381     2.356190    -2.359177
 H    -5.722769     2.883199    -2.180142
 H    -5.007582     1.289063    -2.493216
 H    -4.359016     2.729029    -3.311877
 H    -1.986240    -2.467253    -2.369237
 H    -0.985642    -3.064758    -1.047838
 C    -3.050878    -2.814144    -0.523064
 C    -2.935421    -3.528453     0.676477
 H    -1.946910    -3.835341     1.028344
 C    -4.335109    -2.472720    -0.968569
 H    -4.443674    -1.944025    -1.919373
 C    -4.068483    -3.859353     1.416208
 H    -3.963572    -4.418343     2.349093
 C    -5.482457    -2.783282    -0.234068
 C    -6.838071    -2.345768    -0.706998
 H    -7.126159    -1.393479    -0.230769
 H    -6.854829    -2.186541    -1.794538
 H    -7.613267    -3.083933    -0.454460
 C    -5.332674    -3.481859     0.971279
 H    -6.217870    -3.742251     1.558063
 H    -1.200756    -1.517525     1.251342
 H    -0.179063    -0.082696     1.081142
 C    -2.216094     0.357603     1.504108
 C    -1.890520     1.650900     1.926618
 H    -0.874769     2.025848     1.781141
 C    -3.525296    -0.098321     1.698563
 H    -3.791309    -1.110477     1.388477
 C    -2.855623     2.466158     2.512455
 H    -2.585963     3.475390     2.834497
 C    -4.507700     0.708946     2.279768
 C    -5.914430     0.205701     2.432212
 H    -5.954627    -0.890581     2.362562
 H    -6.352548     0.509998     3.394624
 H    -6.563979     0.612178     1.638410
 C    -4.157255     2.002409     2.686068
 H    -4.911130     2.648592     3.144544
 H     1.781873     0.149205     1.460507
 H     3.472294    -0.334879     1.276846
 C     2.023623    -1.953301     1.011630
 H     1.081262    -2.081590     0.454597
 H     2.748309    -2.615674     0.504238
 C     1.828746    -2.438642     2.448276
 H     1.118066    -1.743240     2.934226
 C     1.202539    -3.827823     2.457200
 H     0.241803    -3.835921     1.918544
 H     1.016584    -4.181955     3.482833
 H     1.863099    -4.560541     1.964588
 C     3.127142    -2.418565     3.247702
 H     2.962441    -2.753451     4.283497
 H     3.570524    -1.412308     3.290535
 H     3.873825    -3.092935     2.795210
 H     3.702327    -1.718546    -1.730765
 H     3.996937    -0.220337    -2.611852
 C     5.212199    -0.464354    -0.843754
 C     6.040981     0.641463    -1.078027
 H     5.778638     1.355976    -1.862581
 C     5.593091    -1.377559     0.146296
 H     4.969533    -2.259372     0.320146
 C     7.198592     0.826696    -0.327813
 H     7.840376     1.689067    -0.524406
 C     6.748020    -1.204384     0.916205
 C     7.096627    -2.189135     1.994701
 H     6.482835    -2.019821     2.895178
 H     6.912094    -3.223885     1.669159
 H     8.151338    -2.106898     2.292749
 C     7.548101    -0.084594     0.666991
 H     8.459499     0.068618     1.251180
 H     3.900328     1.842831    -0.089743
 H     3.173796     2.219791    -1.665626
 C     1.966522     2.769843     0.018496
 C     1.033328     3.492928    -0.733412
 H     1.016499     3.384778    -1.819786
 C     1.964780     2.925942     1.410594
 H     2.701040     2.378293     2.006982
 C     0.144124     4.359816    -0.105196
 H    -0.568948     4.930057    -0.704089
 C     1.066575     3.779096     2.060719
 C     1.050238     3.885425     3.558018
 H     2.018131     3.601827     3.995567
 H     0.809792     4.906709     3.888198
 H     0.285668     3.215508     3.987576
 C     0.159102     4.504520     1.279743
 H    -0.542662     5.190001     1.763230
