  90
scf done:    -3652.159964
 C    -1.492297    -1.307425    -3.109122
 H    -0.613750    -0.917070    -3.629314
 H    -1.671167    -2.375422    -3.272280
 C    -2.571056    -0.460533    -2.787447
 H    -2.544238     0.590557    -3.093485
 H    -3.581944    -0.866963    -2.683782
 H    -0.655916     0.403926    -1.546052
Co    -1.418743    -0.812646    -1.153123
 C    -2.347217     2.342157    -0.222910
 O    -4.021755     0.241819     0.162751
 O    -2.000477     0.657697     1.721839
 C     1.310466     0.251111     0.312343
 O     1.173120    -2.393904     0.168191
 O     1.508686    -1.241828    -2.101329
 P     0.622032    -1.115499    -0.729857
 P    -2.401165     0.530131     0.114865
 C    -2.252220    -2.222707    -0.541191
 O    -2.839436    -3.114715    -0.115216
 H    -2.829731     2.469699    -1.203198
 H    -2.973661     2.832506     0.537310
 C    -0.970025     2.927885    -0.221805
 C    -0.334430     3.256150     0.981806
 H    -0.853619     3.078363     1.925730
 C    -0.281608     3.131701    -1.422608
 H    -0.770587     2.868763    -2.364972
 C     0.954938     3.779519     0.971993
 H     1.449412     4.023827     1.915180
 C     1.011283     3.666090    -1.451655
 C     1.706815     3.925560    -2.756571
 H     1.309993     3.287381    -3.558595
 H     1.570743     4.973609    -3.071572
 H     2.789350     3.746193    -2.681004
 C     1.622585     3.986511    -0.233928
 H     2.632768     4.406094    -0.231794
 C    -4.973280     0.961080     0.949037
 H    -4.436478     1.526981     1.732468
 C    -5.879953    -0.055958     1.614134
 H    -5.306583    -0.725866     2.267248
 H    -6.380866    -0.668616     0.849249
 H    -6.649598     0.446980     2.218657
 C    -5.752585     1.911989     0.058000
 H    -5.100224     2.661076    -0.410809
 H    -6.252671     1.346447    -0.742939
 H    -6.520817     2.444785     0.638595
 C    -1.495251    -0.457636     2.459668
 H    -0.884373    -1.074072     1.773333
 C    -2.629058    -1.315873     2.984255
 H    -3.233316    -1.716706     2.159182
 H    -3.281678    -0.728363     3.648817
 H    -2.230009    -2.167455     3.555367
 C    -0.617206     0.098807     3.560976
 H     0.200778     0.706718     3.148111
 H    -1.210301     0.732205     4.238659
 H    -0.171603    -0.717332     4.148328
 H     1.320367     1.124629    -0.355789
 H     0.477579     0.454596     1.000850
 C     2.586948     0.146488     1.088931
 C     2.780941    -0.846534     2.060192
 H     2.000402    -1.587670     2.230087
 C     3.600014     1.091538     0.898208
 H     3.439922     1.894081     0.173169
 C     3.969914    -0.898230     2.780179
 H     4.112960    -1.679011     3.531645
 C     4.803371     1.052919     1.611446
 C     5.873989     2.072185     1.346385
 H     6.383837     1.872014     0.389348
 H     5.453876     3.087665     1.281529
 H     6.639155     2.070148     2.135491
 C     4.979179     0.037810     2.555201
 H     5.909800    -0.013636     3.127121
 C     1.405645    -3.702551    -0.346399
 H     1.963993    -3.601703    -1.293151
 C     0.118298    -4.446983    -0.637538
 H    -0.449381    -3.950297    -1.435909
 H    -0.517617    -4.500654     0.258047
 H     0.344558    -5.471880    -0.968314
 C     2.280302    -4.405375     0.671268
 H     3.197019    -3.826787     0.855798
 H     1.742576    -4.511330     1.626445
 H     2.558879    -5.409204     0.317581
 C     2.857697    -0.973144    -2.484337
 H     2.938080    -1.486077    -3.458053
 C     3.904089    -1.566589    -1.559060
 H     3.802396    -2.657963    -1.489380
 H     3.848836    -1.144724    -0.547322
 H     4.905899    -1.350251    -1.960189
 C     3.043319     0.512628    -2.731961
 H     2.239199     0.889510    -3.379204
 H     3.030189     1.083840    -1.794483
 H     4.007870     0.700323    -3.227395
