  92
scf done:    -5716.084389
 C    -0.421273    -2.450162    -2.879531
 H    -0.812322    -3.457248    -2.702306
 H    -1.125506    -1.788205    -3.392814
 C     0.964888    -2.256025    -3.036936
 H     1.654773    -3.101564    -2.960650
 H     1.332187    -1.436521    -3.661800
 H     0.124456    -0.279909    -1.833523
Co     0.372259    -1.608799    -1.213347
 C    -2.711731    -0.210458    -1.186252
 O    -1.951244    -1.541460     1.035264
 O    -0.807883     0.648644     0.560760
 C     2.369326    -0.420989     1.196314
 O     3.503057    -1.639082    -1.013535
 O     2.656485     0.713796    -1.246248
 P     2.174347    -0.753893    -0.590960
 P    -1.232919    -0.746172    -0.262312
 C     0.497885    -3.098253    -0.298411
 O     0.532781    -4.061000     0.324641
 H    -3.418559     0.247699    -0.474074
 H    -3.186954    -1.136725    -1.546658
 C    -2.406784     0.737484    -2.336967
 H    -1.781542     1.570389    -1.977057
 H    -1.787959     0.219088    -3.088307
 C    -3.656295     1.301484    -3.017946
 H    -4.237776     1.842649    -2.247020
 C    -3.261157     2.304019    -4.095483
 H    -2.669861     3.133175    -3.679387
 H    -4.148593     2.735966    -4.583203
 H    -2.656724     1.816339    -4.878839
 C    -4.545305     0.203495    -3.591419
 H    -5.420830     0.632533    -4.102266
 H    -4.922271    -0.479407    -2.815199
 H    -3.992178    -0.400100    -4.331048
 C    -3.158295    -2.173808     0.987130
 C    -3.271921    -3.433840     0.395667
 H    -2.384842    -3.908605    -0.027667
 C    -4.276485    -1.563739     1.558391
 H    -4.165471    -0.581632     2.022867
 C    -4.505580    -4.077247     0.362474
 H    -4.607241    -5.061686    -0.096930
 C    -5.510102    -2.206944     1.531678
 H    -6.391068    -1.739900     1.974787
 C    -5.620521    -3.459410     0.928171
Cl    -7.157312    -4.258172     0.885674
 C    -1.654978     1.363362     1.359537
 C    -1.825139     0.994963     2.696010
 H    -1.313418     0.107158     3.069139
 C    -2.308474     2.489906     0.856004
 H    -2.159113     2.779891    -0.184665
 C    -2.650601     1.746639     3.526512
 H    -2.790693     1.467357     4.571983
 C    -3.134967     3.244464     1.684202
 H    -3.647700     4.127536     1.299830
 C    -3.304957     2.867959     3.015830
Cl    -4.334760     3.803202     4.047274
 H     2.338680    -1.415426     1.676978
 H     1.395411     0.042519     1.429874
 C     3.517955     0.425526     1.729142
 H     4.454315    -0.148609     1.685799
 H     3.675723     1.301125     1.076075
 C     3.305146     0.902367     3.170424
 H     3.042674     0.015197     3.777423
 C     4.601778     1.481791     3.724230
 H     5.419701     0.745703     3.686881
 H     4.484529     1.807213     4.769423
 H     4.918733     2.359055     3.135845
 C     2.166705     1.910018     3.293827
 H     1.996013     2.190160     4.344506
 H     1.212203     1.525794     2.902332
 H     2.407285     2.836212     2.744547
 C     4.775778    -1.440725    -0.552794
 C     5.311190    -2.368709     0.340107
 H     4.701909    -3.221524     0.645468
 C     5.535397    -0.351165    -0.979859
 H     5.098769     0.357846    -1.683425
 C     6.597767    -2.191236     0.839378
 H     7.026186    -2.904602     1.545096
 C     6.820869    -0.169579    -0.479787
 H     7.423552     0.683980    -0.794060
 C     7.343520    -1.084288     0.434390
Cl     8.939143    -0.848442     1.067030
 C     1.790443     1.727181    -1.532584
 C     1.352845     1.909194    -2.845357
 H     1.695175     1.218547    -3.617629
 C     1.367850     2.598733    -0.528805
 H     1.708704     2.449349     0.495276
 C     0.487793     2.954506    -3.154913
 H     0.133166     3.100332    -4.176198
 C     0.505082     3.645890    -0.830679
 H     0.166196     4.327650    -0.049408
 C     0.061083     3.811140    -2.140934
Cl    -1.054137     5.092312    -2.501282
