 102
scf done:    -4333.083432
 C    -0.669818    -2.489511    -2.539451
 H    -1.248598    -3.374080    -2.252989
 H    -1.213170    -1.803685    -3.195864
 C     0.736576    -2.545012    -2.582105
 H     1.243732    -3.488470    -2.352311
 H     1.294061    -1.897006    -3.265360
 H     0.127456    -0.335578    -1.818911
Co     0.119485    -1.525356    -0.946861
 O    -1.938443     0.899561    -0.913284
 C    -3.178081    -1.501550    -0.886324
 C    -1.992732    -0.423690     1.515710
 O     2.326903    -0.883928     1.202639
 C     3.289583    -0.402271    -1.288466
 C     1.400640     1.400544     0.111847
 P     1.739385    -0.352595    -0.299369
 P    -1.685729    -0.642607    -0.275023
 C     0.252082    -2.882041     0.161555
 O     0.381732    -3.760747     0.891197
 C    -2.636445     1.937702    -0.371054
 C    -3.752634     2.430197    -1.048438
 H    -4.071615     1.935015    -1.967266
 C    -2.203384     2.556162     0.803692
 H    -1.312605     2.188738     1.311117
 C    -4.466131     3.529388    -0.559459
 C    -5.656016     4.053093    -1.312276
 H    -6.318500     3.236191    -1.637446
 H    -6.247126     4.747475    -0.698515
 H    -5.344621     4.595961    -2.220070
 C    -2.914822     3.643462     1.299201
 H    -2.577248     4.124558     2.220518
 C    -4.039463     4.127278     0.631384
 H    -4.588283     4.983519     1.032508
 C    -3.890523    -1.049659    -1.992064
 H    -3.591169    -0.108946    -2.456220
 C    -3.517685    -2.743684    -0.319083
 O    -2.742159    -3.138187     0.709438
 C    -2.940850    -4.390042     1.300984
 H    -3.926435    -4.454858     1.794269
 H    -2.149890    -4.504440     2.052038
 H    -2.852641    -5.206297     0.563089
 C    -4.958069    -1.784973    -2.510704
 H    -5.508710    -1.413860    -3.377762
 C    -4.587669    -3.482871    -0.826864
 H    -4.862452    -4.439007    -0.380309
 C    -5.307017    -2.994350    -1.919539
 H    -6.141883    -3.579078    -2.313414
 C    -0.914149    -0.587046     2.384828
 H     0.057754    -0.869020     1.974823
 C    -3.250124    -0.069261     2.049605
 O    -4.255211     0.067442     1.172603
 C    -5.470838     0.628885     1.578759
 H    -5.996125    -0.013317     2.307079
 H    -6.084834     0.716501     0.673812
 H    -5.322974     1.633315     2.010341
 C    -1.052931    -0.390474     3.758065
 H    -0.192916    -0.520319     4.417912
 C    -3.393005     0.133561     3.425542
 H    -4.358439     0.420113     3.843014
 C    -2.294365    -0.026669     4.269420
 H    -2.420362     0.136161     5.342963
 C     3.603064    -0.833551     1.675113
 C     4.429515     0.276678     1.506347
 H     4.057962     1.151468     0.970537
 C     4.062878    -1.955292     2.370110
 H     3.393050    -2.809818     2.483080
 C     5.736439     0.272289     2.005309
 C     6.631630     1.449881     1.747414
 H     6.093100     2.400711     1.878841
 H     7.504055     1.453125     2.416184
 H     7.007609     1.428660     0.710170
 C     5.352943    -1.951435     2.888414
 H     5.716214    -2.824555     3.436256
 C     6.189594    -0.850017     2.704497
 H     7.206459    -0.863619     3.105253
 C     3.687191    -1.693598    -1.647356
 H     3.050673    -2.527574    -1.345157
 C     4.113429     0.678414    -1.667554
 O     3.765012     1.906051    -1.244841
 C     4.499619     3.027205    -1.639345
 H     5.534439     2.997475    -1.254380
 H     3.983104     3.896099    -1.210982
 H     4.528744     3.130877    -2.737957
 C     4.852832    -1.934008    -2.368506
 H     5.138263    -2.955624    -2.625814
 C     5.270763     0.444198    -2.420095
 H     5.903635     1.277647    -2.725111
 C     5.634794    -0.854776    -2.765795
 H     6.545685    -1.017083    -3.347333
 C     1.462870     1.853611     1.429141
 H     1.760240     1.157890     2.214832
 C     0.989832     2.296406    -0.894860
 O     0.979844     1.813569    -2.148283
 C     0.254604     2.486226    -3.140099
 H    -0.779926     2.681285    -2.812578
 H     0.235487     1.822614    -4.013854
 H     0.735946     3.438067    -3.426512
 C     1.160007     3.177857     1.753057
 H     1.223935     3.512663     2.790253
 C     0.666685     3.616100    -0.572679
 H     0.337610     4.307450    -1.348752
 C     0.766818     4.054227     0.747858
 H     0.513128     5.089729     0.986963
