 102
scf done:    -4333.094715
 C     1.265181     2.153726    -2.677648
 H     1.912934     3.006179    -2.445662
 H     1.743387     1.376052    -3.280413
 C    -0.131778     2.339163    -2.735302
 H    -0.563275     3.324638    -2.529941
 H    -0.735474     1.715547    -3.402677
 H     0.247076     0.092426    -1.830117
Co     0.389903     1.344698    -1.047775
 O     2.625426    -0.741982    -1.759173
 C     3.274038     0.451481     0.579190
 C     1.204895    -1.518548     0.418267
 O    -1.617272     0.191349     1.146559
 C    -2.621249     2.364992    -0.112586
 C    -2.660888    -0.192904    -1.352340
 P    -1.567509     0.903437    -0.394154
 P     1.835285    -0.034570    -0.429321
 C     0.634049     2.687503     0.050224
 O     0.782446     3.551356     0.793969
 C     3.907748    -1.209009    -1.677475
 C     4.965747    -0.321433    -1.884617
 H     4.730674     0.717384    -2.124432
 C     4.165092    -2.546815    -1.377490
 H     3.335198    -3.235669    -1.218786
 C     6.290226    -0.733789    -1.734836
 C     7.413335     0.256836    -1.838140
 H     7.141659     1.112213    -2.473073
 H     7.663126     0.652118    -0.838613
 H     8.325328    -0.202359    -2.246966
 C     5.487379    -2.973412    -1.263678
 H     5.695790    -4.020816    -1.031399
 C     6.540175    -2.077426    -1.425812
 H     7.571422    -2.421474    -1.310415
 C     4.040755    -0.468048     1.315796
 H     3.684537    -1.491907     1.445686
 C     3.767647     1.747548     0.421399
 H     3.194023     2.469014    -0.164545
 C     5.264384    -0.104747     1.850090
 H     5.876737    -0.817478     2.405147
 C     4.996621     2.129709     0.955016
 H     5.351408     3.149011     0.802700
 C     5.761701     1.193333     1.658763
 O     6.979892     1.444341     2.174003
 C     7.533136     2.721029     2.010769
 H     6.912487     3.501032     2.485305
 H     8.515544     2.702730     2.499153
 H     7.669023     2.974815     0.944575
 C     0.841978    -2.661683    -0.306460
 H     1.036831    -2.698013    -1.380929
 C     0.921861    -1.479755     1.785036
 H     1.166660    -0.586747     2.365595
 C     0.235502    -3.740816     0.321410
 H    -0.055157    -4.632877    -0.236773
 C     0.309515    -2.552307     2.427246
 H     0.085522    -2.478132     3.490983
 C    -0.045088    -3.689568     1.693238
 O    -0.686257    -4.756121     2.213444
 C    -1.116391    -4.695912     3.547468
 H    -1.805075    -3.848906     3.711915
 H    -1.648587    -5.634615     3.746941
 H    -0.266682    -4.614066     4.247537
 C    -2.618403    -0.601539     1.624051
 C    -2.743378    -1.913007     1.165581
 H    -2.043514    -2.268347     0.408937
 C    -3.497671    -0.112524     2.592898
 H    -3.393124     0.914322     2.944705
 C    -3.757972    -2.749832     1.636094
 C    -3.903579    -4.133501     1.071076
 H    -4.199179    -4.090046     0.009763
 H    -2.950117    -4.681668     1.118802
 H    -4.665257    -4.713596     1.611515
 C    -4.496159    -0.949538     3.086046
 H    -5.184726    -0.574731     3.847593
 C    -4.632508    -2.253502     2.610209
 H    -5.430950    -2.893494     2.995306
 C    -3.350681     2.947440    -1.161457
 H    -3.384281     2.457410    -2.137868
 C    -2.581631     3.027804     1.115006
 H    -1.992922     2.605758     1.932593
 C    -4.036705     4.136880    -0.975598
 H    -4.611293     4.594245    -1.783235
 C    -3.268687     4.224390     1.316298
 H    -3.215352     4.711153     2.290291
 C    -4.004698     4.786057     0.267510
 O    -4.702583     5.935154     0.357025
 C    -4.693203     6.637363     1.567683
 H    -3.673712     6.952478     1.852258
 H    -5.311726     7.531447     1.418196
 H    -5.122454     6.041157     2.392521
 C    -2.117876    -1.153885    -2.217064
 H    -1.045460    -1.131618    -2.427059
 C    -4.037578    -0.233579    -1.100755
 H    -4.487951     0.495677    -0.423755
 C    -2.912376    -2.136949    -2.783841
 H    -2.493969    -2.894654    -3.448744
 C    -4.850351    -1.211252    -1.665811
 H    -5.914230    -1.219328    -1.429572
 C    -4.284512    -2.184993    -2.497967
 O    -4.973766    -3.197397    -3.054208
 C    -6.345182    -3.309847    -2.788849
 H    -6.906080    -2.429577    -3.148317
 H    -6.697080    -4.198992    -3.326849
 H    -6.543367    -3.441938    -1.710618
