 110
scf done:    -4189.574407
 C     0.033821    -1.803480    -2.334519
 H     0.294788    -1.317295    -3.281175
 H     0.772192    -2.526749    -1.976115
 C    -1.317527    -1.962335    -1.983377
 H    -2.103619    -1.569792    -2.633909
 H    -1.626091    -2.815904    -1.376189
 H     0.078812    -1.536333     0.067325
Co    -0.442925    -0.500352    -0.850732
 O     2.537839    -1.350119    -0.272750
 C     2.660277     1.196843    -1.167588
 C     1.708872     0.594307     1.471699
 O    -1.457382     0.714627     2.049883
 C    -3.578209     0.089476     0.549226
 C    -1.840859    -1.778894     1.995913
 P    -1.793398    -0.378982     0.775177
 P     1.533786     0.007891    -0.286788
 C    -1.078636     0.794186    -1.851129
 O    -1.552415     1.599088    -2.519562
 C     3.715842    -1.501595    -0.947731
 C     4.922347    -1.361307    -0.263856
 H     4.898121    -1.109573     0.796600
 C     3.709942    -1.826701    -2.307058
 H     2.758534    -1.937984    -2.829183
 C     6.143169    -1.534806    -0.923356
 C     7.431441    -1.404622    -0.163451
 H     8.264857    -1.126139    -0.824364
 H     7.348993    -0.650379     0.632718
 H     7.698641    -2.359184     0.320093
 C     4.923688    -1.994218    -2.968826
 H     4.926266    -2.241940    -4.033190
 C     6.130657    -1.847381    -2.287570
 H     7.076111    -1.976768    -2.820831
 H     3.547229     1.333340    -0.530059
 H     3.008873     0.676977    -2.069671
 C     2.023519     2.506579    -1.517493
 C     2.037296     3.567664    -0.604014
 H     2.527486     3.434396     0.363148
 C     1.415538     2.694892    -2.776446
 C     1.429480     1.608480    -3.811530
 H     1.106507     0.646041    -3.390349
 H     2.445322     1.460739    -4.215852
 H     0.765025     1.853411    -4.650733
 C     1.456040     4.795873    -0.905582
 H     1.486575     5.607040    -0.174729
 C     0.821642     3.928426    -3.058844
 H     0.337804     4.068578    -4.028878
 C     0.836363     4.974341    -2.139509
 H     0.368773     5.929311    -2.391362
 H     1.481892     1.671186     1.419081
 H     0.872452     0.148553     2.022938
 C     3.017661     0.341327     2.148760
 C     4.037753     1.299088     2.113938
 H     3.854772     2.254744     1.616807
 C     3.247817    -0.877912     2.824303
 C     2.183564    -1.931855     2.902368
 H     1.863494    -2.237617     1.895010
 H     1.294043    -1.563370     3.439865
 H     2.546813    -2.822651     3.432252
 C     5.277528     1.068552     2.706335
 H     6.055998     1.833435     2.659319
 C     4.493122    -1.090739     3.423543
 H     4.671066    -2.035021     3.945177
 C     5.507897    -0.136721     3.363414
 H     6.472986    -0.334567     3.835743
 C    -1.696302     2.052682     1.966995
 C    -2.448432     2.631506     2.993077
 H    -2.802629     1.983197     3.798089
 C    -1.224184     2.841227     0.914989
 H    -0.624443     2.396966     0.121723
 C    -2.745547     3.996333     2.988439
 C    -3.521742     4.613874     4.115407
 H    -4.193165     3.885098     4.591810
 H    -2.842302     4.993211     4.896999
 H    -4.126755     5.464242     3.768742
 C    -1.535291     4.199609     0.897333
 H    -1.175926     4.808810     0.065756
 C    -2.287592     4.774814     1.917181
 H    -2.524460     5.841500     1.885376
 H    -4.131833    -0.317137     1.409778
 H    -3.583761     1.181069     0.674188
 C    -4.217281    -0.290423    -0.753447
 C    -4.389304    -1.639890    -1.081535
 H    -4.032590    -2.408533    -0.392685
 C    -4.655101     0.700312    -1.656741
 C    -4.541807     2.165753    -1.343472
 H    -3.501569     2.474983    -1.162954
 H    -5.121318     2.434162    -0.445233
 H    -4.923229     2.770549    -2.177277
 C    -4.972586    -2.026926    -2.283174
 H    -5.085587    -3.088309    -2.515391
 C    -5.229187     0.292958    -2.866915
 H    -5.561874     1.058216    -3.573457
 C    -5.389475    -1.052545    -3.186333
 H    -5.840882    -1.337431    -4.139760
 H    -0.823972    -1.761547     2.416751
 H    -2.522194    -1.454487     2.794177
 C    -2.159073    -3.155814     1.494095
 C    -1.149241    -3.904162     0.873687
 H    -0.152134    -3.466932     0.781639
 C    -3.438782    -3.731914     1.648442
 C    -4.559847    -3.028244     2.361136
 H    -4.979178    -2.204389     1.761798
 H    -4.234552    -2.601334     3.322182
 H    -5.383274    -3.725227     2.568105
 C    -1.391891    -5.173295     0.359824
 H    -0.586514    -5.726045    -0.128868
 C    -3.664326    -5.012888     1.128164
 H    -4.655532    -5.459233     1.246315
 C    -2.663521    -5.728234     0.477848
 H    -2.873422    -6.723984     0.080362
