 102
scf done:    -3809.271124
 C     1.644013    -2.326345     2.545855
 H     2.394085    -3.108169     2.392189
 H     1.964465    -1.536833     3.235050
 C     0.270941    -2.622427     2.416832
 H    -0.040645    -3.645506     2.181135
 H    -0.473593    -2.044074     2.972058
 H     0.590323    -0.353276     1.528448
Co     0.918974    -1.597189     0.802680
 C     3.157978     0.947669     1.258833
 O     3.989962    -1.374900     0.185752
 O     2.492037     0.109399    -1.306647
 C    -0.647991     0.826304    -0.845196
 O    -1.825149    -1.507896    -0.968667
 O    -1.876909    -0.343187     1.328316
 P    -0.837186    -0.735062     0.106481
 P     2.593440    -0.498159     0.222655
 C     1.170513    -2.945439    -0.284691
 O     1.323838    -3.803308    -1.033950
 H     3.504890     0.457571     2.182302
 H     4.038608     1.404035     0.784576
 C     2.101262     1.966909     1.552377
 C     2.029902     3.173797     0.842840
 H     2.806099     3.421629     0.115381
 C     1.118448     1.705723     2.513348
 H     1.183496     0.790110     3.105447
 C     0.986313     4.065894     1.070637
 H     0.944850     5.006293     0.515899
 C     0.040221     2.571050     2.729449
 C    -1.040188     2.187337     3.695768
 H    -1.792811     2.981163     3.801659
 H    -1.542531     1.273084     3.340430
 H    -0.628955     1.969115     4.693558
 C    -0.011615     3.759993     1.995627
 H    -0.837935     4.457722     2.157647
 C     5.046143    -1.275693    -0.747690
 H     5.443863    -2.298019    -0.856927
 H     4.653694    -0.976793    -1.733737
 C     6.158683    -0.344691    -0.299738
 H     6.953853    -0.377172    -1.065844
 H     5.797838     0.699565    -0.293117
 C     6.733296    -0.691563     1.065739
 H     7.145615    -1.715340     1.031651
 H     5.908672    -0.729505     1.796160
 C     7.800995     0.283234     1.532878
 H     8.648677     0.321014     0.829578
 H     7.398716     1.306135     1.616222
 H     8.200421     0.004214     2.519500
 C     3.066945     1.261231    -1.891910
 H     2.432869     2.132117    -1.653203
 H     4.074334     1.460602    -1.486601
 C     3.132397     1.069773    -3.392551
 H     3.579775     1.979642    -3.830348
 H     3.825647     0.241446    -3.623067
 C     1.776974     0.793830    -4.028802
 H     1.081854     1.613053    -3.772006
 H     1.356491    -0.116513    -3.571673
 C     1.846749     0.630420    -5.537804
 H     2.238234     1.538359    -6.024690
 H     2.508415    -0.204821    -5.818638
 H     0.854415     0.425420    -5.966691
 H    -0.070896     1.487776    -0.181003
 H     0.020310     0.547183    -1.673573
 C    -1.891992     1.502244    -1.329682
 C    -2.601610     1.013931    -2.434254
 H    -2.228554     0.135536    -2.963740
 C    -2.382264     2.628560    -0.663174
 H    -1.817458     3.017383     0.188877
 C    -3.783084     1.631587    -2.832913
 H    -4.333431     1.244437    -3.694341
 C    -3.570702     3.258084    -1.047185
 C    -4.089384     4.437264    -0.275007
 H    -3.269189     5.086573     0.066131
 H    -4.779969     5.045233    -0.876889
 H    -4.638735     4.109525     0.623937
 C    -4.269848     2.741378    -2.142498
 H    -5.199765     3.218662    -2.464121
 C    -2.082133    -2.898958    -0.866038
 H    -1.638729    -3.387418    -1.750858
 H    -1.577454    -3.314216     0.022970
 C    -3.572487    -3.163838    -0.807034
 H    -3.720532    -4.257577    -0.766490
 H    -3.972369    -2.767150     0.141624
 C    -4.351401    -2.573229    -1.973791
 H    -3.966188    -2.997684    -2.918182
 H    -4.146137    -1.491232    -2.024419
 C    -5.848741    -2.811303    -1.871229
 H    -6.087028    -3.886982    -1.842103
 H    -6.260131    -2.360458    -0.953146
 H    -6.389001    -2.373542    -2.724281
 C    -3.248363    -0.025580     1.159682
 H    -3.379287     1.063414     1.271055
 H    -3.582398    -0.284942     0.141927
 C    -4.069266    -0.764290     2.194133
 H    -3.859053    -1.844432     2.108402
 H    -3.729484    -0.469754     3.202279
 C    -5.561184    -0.506095     2.044496
 H    -5.878527    -0.800546     1.028038
 H    -5.752467     0.579776     2.110348
 C    -6.404760    -1.238728     3.074836
 H    -6.262070    -2.328912     3.003003
 H    -6.132285    -0.939700     4.099681
 H    -7.477812    -1.033859     2.941837
