 102
scf done:    -4333.028607
 C    -0.842998    -1.193665    -2.876821
 H    -1.398335    -2.063591    -2.512240
 H    -1.405103    -0.584787    -3.593824
 C     0.563541    -1.235052    -2.965634
 H     1.109092    -2.134933    -2.665998
 H     1.065047    -0.650316    -3.744453
 H     0.049164    -1.454680    -0.657564
Co     0.004760    -0.162184    -1.350559
 C     1.602444    -0.829418     1.566711
 C     3.228473    -1.093454    -0.786403
 C     2.636510     1.440599     0.224956
 C    -1.671524     0.489104     1.599834
 C    -3.117657     1.140256    -0.745369
 C    -2.745783    -1.580929    -0.009511
 P    -1.796366    -0.005526    -0.171519
 P     1.785146    -0.154783    -0.140432
 C     0.067593     1.426734    -2.091834
 O     0.111444     2.463403    -2.589918
 C     1.682604     0.004896     2.683510
 H     1.886568     1.066643     2.536420
 C     1.335788    -2.199982     1.780214
 O     1.284983    -2.983120     0.681773
 C     1.205938    -4.373178     0.820386
 H     2.056404    -4.771053     1.401036
 H     1.239088    -4.787026    -0.195081
 H     0.264043    -4.685418     1.304613
 C     1.514592    -0.485588     3.977343
 H     1.577777     0.195085     4.828086
 C     1.169883    -2.697289     3.076172
 H     0.972183    -3.757009     3.238041
 C     1.261399    -1.837735     4.169763
 H     1.129545    -2.238382     5.177804
 C     4.021008    -1.955025    -0.016001
 H     3.769890    -2.137219     1.030921
 C     3.611983    -0.856168    -2.107272
 H     3.015808    -0.176358    -2.719194
 C     5.141614    -2.570775    -0.555280
 H     5.760470    -3.245334     0.039809
 C     4.739287    -1.459191    -2.662036
 H     5.001661    -1.244726    -3.698270
 C     5.509594    -2.332384    -1.886058
 O     6.609418    -2.976557    -2.327618
 C     7.022543    -2.773528    -3.648896
 H     7.277016    -1.716395    -3.843449
 H     7.920919    -3.386530    -3.796469
 H     6.252197    -3.089809    -4.374494
 C     1.890294     2.625540     0.261382
 H     0.819621     2.581450     0.061418
 C     4.005689     1.517839     0.496695
 H     4.617188     0.613382     0.470884
 C     2.487470     3.841440     0.560901
 H     1.913264     4.769809     0.579377
 C     4.620582     2.731827     0.797650
 H     5.692231     2.748939     0.997941
 C     3.860296     3.906884     0.831195
 O     4.359024     5.128667     1.106290
 C     5.726643     5.254148     1.375101
 H     6.345560     4.931271     0.519287
 H     5.914191     6.318533     1.565975
 H     6.026337     4.674273     2.266117
 C    -1.842719    -0.410838     2.651431
 H    -2.073734    -1.453518     2.426130
 C    -1.380931     1.834173     1.910575
 O    -1.236412     2.662644     0.855654
 C    -1.250432     4.049222     1.049997
 H    -2.174526     4.371331     1.559952
 H    -1.213971     4.499397     0.049873
 H    -0.376969     4.392592     1.630825
 C    -1.741524    -0.000007     3.980839
 H    -1.876711    -0.725741     4.784992
 C    -1.289972     2.254492     3.239029
 H    -1.079773     3.298121     3.474664
 C    -1.470726     1.331900     4.269986
 H    -1.396189     1.667619     5.307242
 C    -4.055324     1.720475     0.124457
 H    -4.005005     1.508315     1.195633
 C    -3.215976     1.436948    -2.103157
 H    -2.495785     0.998582    -2.794957
 C    -5.044426     2.567592    -0.349161
 H    -5.771960     3.025557     0.324031
 C    -4.208538     2.283698    -2.598289
 H    -4.243948     2.491106    -3.667945
 C    -5.130208     2.858821    -1.718974
 O    -6.119940     3.695943    -2.089934
 C    -6.250082     4.024323    -3.444174
 H    -6.447761     3.133493    -4.066478
 H    -7.105119     4.707917    -3.522376
 H    -5.349933     4.532950    -3.832572
 C    -2.058849    -2.797876     0.125592
 H    -0.967032    -2.792522     0.092227
 C    -4.141790    -1.620878     0.001831
 H    -4.714636    -0.699788    -0.117628
 C    -2.736937    -3.995840     0.287167
 H    -2.203195    -4.943007     0.389361
 C    -4.839657    -2.819832     0.153397
 H    -5.929813    -2.801526     0.148141
 C    -4.138273    -4.019814     0.303584
 O    -4.715091    -5.228236     0.458550
 C    -6.112125    -5.310424     0.471269
 H    -6.553641    -4.957118    -0.477412
 H    -6.364730    -6.369849     0.606542
 H    -6.550908    -4.730340     1.302483
