 100
scf done:    -4381.221436
 C     0.637129    -2.614577    -2.625202
 H     1.331398    -2.470665    -3.460431
 H     0.976820    -3.334575    -1.874480
 C    -0.743557    -2.423254    -2.821990
 H    -1.118794    -2.122220    -3.804916
 H    -1.457603    -2.990937    -2.221384
 H    -0.278745    -1.626223    -0.546866
Co     0.035361    -0.865664    -1.783130
 C     3.324924    -0.393943    -1.917478
 O     1.898366     0.808292     0.187000
 O     2.454290    -1.719023     0.178748
 C    -1.362729     0.773746     0.768343
 O    -2.119956     1.404440    -1.816447
 O    -3.039535    -0.679929    -0.762045
 P    -1.582612     0.118280    -0.939379
 P     1.852211    -0.517628    -0.820948
 C     0.244560     0.200774    -3.162709
 O     0.378191     0.921177    -4.044289
 H     3.363381    -1.409679    -2.348416
 H     2.986567     0.260972    -2.735204
 C     4.680827     0.044007    -1.441877
 C     5.331336     1.097792    -2.093216
 H     4.843764     1.588742    -2.939790
 C     5.332940    -0.577817    -0.369821
 H     4.841395    -1.402034     0.149260
 C     6.580140     1.550442    -1.675214
 H     7.085937     2.380019    -2.172193
 C     6.574146    -0.130150     0.068145
 H     7.076149    -0.589805     0.921182
 C     7.177895     0.936972    -0.584246
 F     8.355286     1.388245    -0.141309
 C     2.986533     1.297062     0.877707
 C     3.609945     2.450056     0.405359
 H     3.228979     2.922577    -0.501771
 C     3.442798     0.688249     2.043694
 H     2.953821    -0.208285     2.422970
 C     4.722464     2.953887     1.066665
 H     5.222651     3.840903     0.668485
 C     4.555812     1.210375     2.699931
 H     4.919430     0.713424     3.603476
 C     5.230368     2.333974     2.215818
 C     6.489932     2.833927     2.859555
 H     7.365392     2.566500     2.244247
 H     6.636483     2.397689     3.857668
 H     6.487271     3.929711     2.962099
 C     1.664087    -2.436817     1.031620
 C     0.893362    -1.818764     2.019699
 H     0.896941    -0.731975     2.105195
 C     1.656028    -3.825320     0.921551
 H     2.259985    -4.296417     0.143974
 C     0.121101    -2.592159     2.881663
 H    -0.480672    -2.092455     3.646392
 C     0.880491    -4.585959     1.792921
 H     0.879159    -5.674566     1.690667
 C     0.097584    -3.989143     2.787521
 C    -0.730288    -4.809934     3.733607
 H    -1.748369    -4.403182     3.833544
 H    -0.286846    -4.823490     4.742787
 H    -0.812614    -5.852843     3.395969
 H    -1.020905    -0.116768     1.318357
 H    -0.488169     1.439499     0.703815
 C    -2.519939     1.424128     1.461991
 C    -2.545162     2.810597     1.649979
 H    -1.703262     3.414581     1.304787
 C    -3.606164     0.670670     1.924372
 H    -3.603907    -0.414873     1.804501
 C    -3.636622     3.440817     2.236435
 H    -3.670090     4.523876     2.364219
 C    -4.707219     1.285587     2.514102
 H    -5.564977     0.708210     2.863586
 C    -4.713797     2.667795     2.647717
 F    -5.780667     3.270425     3.179755
 C    -3.042143     2.366787    -1.488332
 C    -2.642070     3.697569    -1.566872
 H    -1.619514     3.922166    -1.876550
 C    -4.352497     2.049223    -1.127344
 H    -4.657669     1.004711    -1.083682
 C    -3.538713     4.709646    -1.228819
 H    -3.210847     5.751852    -1.276767
 C    -5.228356     3.070722    -0.783264
 H    -6.243049     2.812542    -0.467405
 C    -4.839611     4.416663    -0.811046
 C    -5.791706     5.490644    -0.372563
 H    -5.346262     6.490933    -0.467659
 H    -6.080889     5.346469     0.681586
 H    -6.719699     5.476409    -0.965913
 C    -3.230141    -2.018948    -0.601556
 C    -4.179204    -2.641467    -1.415630
 H    -4.703918    -2.041094    -2.161066
 C    -2.543897    -2.765654     0.355057
 H    -1.797901    -2.299055     0.999336
 C    -4.422814    -4.002344    -1.280524
 H    -5.164334    -4.477431    -1.929145
 C    -2.789825    -4.133534     0.466424
 H    -2.225187    -4.708461     1.204238
 C    -3.727474    -4.779325    -0.342719
 C    -3.990538    -6.251983    -0.216613
 H    -5.029239    -6.449168     0.094285
 H    -3.325805    -6.715634     0.525804
 H    -3.837014    -6.770578    -1.176194
