 100
scf done:    -4381.233064
 C    -1.007703     3.761904     0.423334
 H    -1.799554     4.139229    -0.230761
 H    -1.308672     3.647597     1.468631
 C     0.345630     3.979791     0.103546
 H     0.607178     4.545572    -0.796730
 H     1.092621     4.030843     0.900865
 H     0.192870     1.771767     1.114448
Co    -0.170877     2.059216    -0.293218
 C    -1.257997    -0.495026     1.619093
 O    -3.132154     0.998349     0.562240
 O    -1.766672    -0.473772    -1.113618
 C     2.496948     0.999894    -2.121827
 O     2.964071     1.674224     0.361700
 O     1.548730    -0.481994     0.016676
 P     1.653015     1.099596    -0.490743
 P    -1.567648     0.573737     0.160340
 C    -0.569301     2.307812    -1.986706
 O    -0.815031     2.454827    -3.098109
 H    -0.235192    -0.862674     1.452644
 H    -1.208533     0.228392     2.449323
 C    -2.210978    -1.613598     1.902791
 C    -3.466853    -1.367255     2.469883
 H    -3.742747    -0.345771     2.737641
 C    -1.875925    -2.929741     1.564876
 H    -0.895236    -3.140678     1.131719
 C    -4.382074    -2.397949     2.658504
 H    -5.369596    -2.216888     3.086592
 C    -2.781381    -3.970949     1.740446
 H    -2.539520    -4.995194     1.453453
 C    -4.029472    -3.685366     2.276173
 F    -4.921260    -4.671419     2.414144
 C    -3.810349     1.979768    -0.110252
 C    -3.815123     2.036015    -1.501715
 H    -3.276573     1.277257    -2.072708
 C    -4.509896     2.921578     0.644260
 H    -4.485804     2.854703     1.733168
 C    -4.492340     3.064680    -2.168058
 C    -4.457036     3.126629    -3.666940
 H    -4.963946     2.254766    -4.110721
 H    -4.949223     4.032948    -4.045779
 H    -3.418569     3.117183    -4.032738
 C    -5.199764     3.932630    -0.014817
 H    -5.746612     4.679469     0.565762
 C    -5.184365     4.012125    -1.408241
 H    -5.717928     4.821267    -1.913105
 C    -2.501953    -1.620281    -1.262548
 C    -3.839746    -1.711911    -0.875652
 H    -4.320882    -0.858033    -0.399313
 C    -1.868373    -2.694296    -1.885012
 H    -0.832364    -2.579588    -2.208619
 C    -4.545941    -2.902675    -1.060526
 C    -5.967586    -3.028534    -0.595742
 H    -6.038331    -3.734436     0.247020
 H    -6.367820    -2.062421    -0.259130
 H    -6.618168    -3.410478    -1.397576
 C    -2.575409    -3.877553    -2.084482
 H    -2.084093    -4.724119    -2.570589
 C    -3.898535    -3.987272    -1.668137
 H    -4.442425    -4.923382    -1.818715
 H     1.737743     0.567084    -2.792364
 H     2.603609     2.057734    -2.414718
 C     3.795405     0.259295    -2.212844
 C     4.981034     0.821478    -1.724785
 H     4.965241     1.830678    -1.309841
 C     3.838068    -1.036058    -2.740693
 H     2.923692    -1.490316    -3.129412
 C     6.169498     0.098208    -1.724901
 H     7.097201     0.520371    -1.334578
 C     5.016602    -1.774608    -2.745422
 H     5.051953    -2.794859    -3.129817
 C     6.166130    -1.197382    -2.224361
 F     7.295197    -1.911306    -2.187715
 C     2.920759     2.048336     1.676024
 C     2.319225     1.248588     2.646354
 H     1.858500     0.303817     2.354662
 C     3.539141     3.248812     2.028730
 H     4.002216     3.855830     1.248998
 C     2.307594     1.647432     3.988211
 C     1.631079     0.785139     5.013792
 H     1.774055     1.177195     6.030099
 H     0.546793     0.725514     4.825023
 H     2.018622    -0.245128     4.986864
 C     3.540013     3.640974     3.362545
 H     4.021070     4.579433     3.648174
 C     2.925076     2.851939     4.335478
 H     2.926895     3.175119     5.379378
 C     2.447848    -1.516426     0.054625
 C     3.732502    -1.378022     0.581067
 H     4.069345    -0.403709     0.933537
 C     1.992210    -2.753588    -0.397729
 H     0.975447    -2.832185    -0.786706
 C     4.597936    -2.473883     0.618855
 C     6.001606    -2.320441     1.127449
 H     6.723316    -2.394204     0.298316
 H     6.149072    -1.346577     1.614105
 H     6.253792    -3.110148     1.851513
 C     2.848462    -3.851042    -0.344564
 H     2.499390    -4.824420    -0.697930
 C     4.141643    -3.713737     0.150708
 H     4.809504    -4.578539     0.179112
