  68
scf done:    -3314.051801
 C     0.587011     0.001955    -1.465158
 H     1.625620     0.342124    -1.479652
 H     0.351400    -0.699176    -2.272427
 C    -0.422514     0.837193    -0.944350
 H    -0.169389     1.832701    -0.568667
 H    -1.431352     0.801520    -1.366425
 H    -0.877259    -0.355968     1.535470
Co     0.009773    -0.669586     0.358250
 C    -3.446924    -0.911076     0.428822
 C    -2.137245    -2.160248    -1.810118
 C    -1.969400    -3.297494     0.854955
 C     3.170210     0.082670     1.519861
 C     1.309051     2.264665     1.633716
 C     1.069950     0.012623     3.445247
 P     1.338009     0.419956     1.662747
 P    -1.826207    -1.691857    -0.048352
 C     0.953579    -2.111328     0.452804
 O     1.600052    -3.072234     0.506658
 H    -4.251665    -1.577792     0.082318
 H    -3.451922    -0.923475     1.529530
 C    -3.666248     0.478494    -0.078169
 C    -3.296840     1.584482     0.694743
 H    -2.878465     1.419455     1.689554
 C    -4.204837     0.708721    -1.349935
 H    -4.514527    -0.138987    -1.966735
 C    -3.434771     2.881830     0.211810
 H    -3.143292     3.749232     0.806801
 C    -4.349233     1.999962    -1.851011
 H    -4.764711     2.187587    -2.842600
 C    -3.953339     3.073037    -1.062850
 F    -4.085752     4.312752    -1.534229
 H    -2.070992    -1.222297    -2.385901
 C    -1.142202    -3.181972    -2.340117
 H    -1.270146    -4.163550    -1.858797
 H    -0.106435    -2.858362    -2.159045
 H    -3.173382    -2.522771    -1.917741
 H    -1.266731    -3.327254    -3.423872
 H    -1.846864    -3.031121     1.917808
 C    -3.215997    -4.137940     0.632062
 H    -3.351664    -4.400314    -0.428614
 H    -4.130324    -3.627659     0.969650
 H    -1.062612    -3.865415     0.593773
 H    -3.148369    -5.082767     1.193203
 H     3.695533     0.726158     2.242872
 H     3.300391    -0.959886     1.850006
 C     3.738152     0.266162     0.145193
 C     3.902636    -0.825017    -0.717605
 H     3.636101    -1.826802    -0.375714
 C     4.091787     1.537967    -0.324175
 H     3.995974     2.403621     0.336015
 C     4.381707    -0.654868    -2.013125
 H     4.506207    -1.501243    -2.690818
 C     4.569089     1.726877    -1.618541
 H     4.843617     2.715711    -1.990003
 C     4.702062     0.623449    -2.451626
 F     5.157892     0.794426    -3.692503
 H     1.535484     2.554327     0.594913
 C    -0.020196     2.853370     2.074105
 H    -0.222054     2.652130     3.137541
 H    -0.841757     2.420197     1.487763
 H     2.139854     2.641545     2.253277
 H    -0.034037     3.945137     1.934915
 H     1.115995    -1.088109     3.490939
 C     1.983603     0.652136     4.477178
 H     1.946036     1.751895     4.436003
 H     3.033369     0.348313     4.351102
 H     0.014488     0.262004     3.635845
 H     1.682770     0.355997     5.494082
