 100
scf done:    -4381.077363
 C    -0.851389    -2.209179    -2.904289
 H    -1.304391    -3.199196    -2.778176
 H    -1.485849    -1.494536    -3.436160
 C     0.547770    -2.087388    -2.996538
 H     1.170402    -2.985794    -2.948856
 H     0.994575    -1.264825    -3.559210
 H    -0.260170    -0.101160    -1.847880
Co    -0.097331    -1.425629    -1.194619
 C    -3.172843    -0.188148    -1.681820
 C    -2.993494    -1.696795     0.681202
 C    -1.655904     0.887892     0.651723
 C     1.753690    -0.543319     1.460402
 C     3.318325    -1.205745    -0.832504
 C     1.905178     1.317520    -0.801769
 P     1.682105    -0.459038    -0.412630
 P    -1.913988    -0.616803    -0.367595
 C     0.135206    -2.878218    -0.249727
 O     0.345069    -3.792446     0.421791
 H    -2.673289     0.523000    -2.350100
 H    -3.274159    -1.140421    -2.221597
 C    -4.514971     0.291685    -1.232044
 C    -5.552990    -0.623142    -1.013956
 H    -5.379066    -1.685908    -1.200379
 C    -4.769056     1.647437    -0.987855
 H    -3.974513     2.373685    -1.160351
 C    -6.797869    -0.210389    -0.545844
 H    -7.606598    -0.921431    -0.367584
 C    -6.008421     2.079321    -0.525856
 H    -6.212303     3.134222    -0.332508
 C    -7.007080     1.139961    -0.301616
 F    -8.192825     1.544402     0.163704
 C    -2.910663    -3.068825     0.428095
 H    -2.179322    -3.412480    -0.304686
 C    -3.987617    -1.254084     1.587360
 O    -4.124877     0.068732     1.757973
 C    -5.068021     0.573230     2.658937
 H    -6.094698     0.281986     2.380575
 H    -4.984541     1.665767     2.607285
 H    -4.862261     0.243330     3.692520
 C    -3.734868    -3.996393     1.061687
 H    -3.636744    -5.059883     0.836240
 C    -4.794694    -2.185286     2.253267
 H    -5.546235    -1.844574     2.965261
 C    -4.667412    -3.546551     1.989377
 H    -5.313966    -4.255451     2.512642
 C    -1.458893     0.754534     2.029286
 H    -1.530077    -0.241149     2.475292
 C    -1.518886     2.169044     0.085514
 O    -1.614926     2.255483    -1.257078
 C    -1.304655     3.460788    -1.904573
 H    -2.033922     4.254721    -1.663949
 H    -1.352001     3.252407    -2.980757
 H    -0.289257     3.801486    -1.648774
 C    -1.190462     1.851634     2.843885
 H    -1.043858     1.713762     3.917157
 C    -1.298559     3.283789     0.903567
 H    -1.221290     4.277554     0.463091
 C    -1.134491     3.123303     2.276249
 H    -0.950244     4.000325     2.901509
 H     0.923892     0.080917     1.821577
 H     1.453522    -1.584706     1.651547
 C     3.031718    -0.245517     2.180891
 C     4.046730    -1.210997     2.239781
 H     3.890654    -2.183744     1.767886
 C     3.255658     0.978844     2.823044
 H     2.471244     1.737678     2.829393
 C     5.256758    -0.955122     2.878343
 H     6.050295    -1.703470     2.917060
 C     4.457993     1.252125     3.470044
 H     4.634650     2.205652     3.971140
 C     5.451220     0.281693     3.478973
 F     6.614275     0.541404     4.082253
 C     3.346184    -2.550605    -1.200100
 H     2.398713    -3.080006    -1.290904
 C     4.552132    -0.525930    -0.710225
 O     4.506933     0.754592    -0.312745
 C     5.686967     1.466138    -0.075131
 H     6.310231     0.974042     0.690346
 H     5.378456     2.451660     0.295184
 H     6.278876     1.597580    -0.998159
 C     4.540751    -3.227291    -1.446784
 H     4.523960    -4.282987    -1.724238
 C     5.752279    -1.192034    -0.981221
 H     6.702387    -0.665543    -0.890208
 C     5.742890    -2.537544    -1.344064
 H     6.690477    -3.044676    -1.542501
 C     1.688576     2.326126     0.128446
 H     1.314135     2.073197     1.118908
 C     2.334550     1.680412    -2.096051
 O     2.509527     0.663817    -2.959015
 C     3.059747     0.906046    -4.221478
 H     2.414167     1.561660    -4.831807
 H     3.144387    -0.069902    -4.715526
 H     4.063467     1.359619    -4.145958
 C     1.941312     3.666830    -0.175409
 H     1.771383     4.435323     0.581477
 C     2.587025     3.016928    -2.410767
 H     2.938679     3.294061    -3.404845
 C     2.402904     4.005887    -1.440829
 H     2.615604     5.048114    -1.691628
