  96
scf done:    -4080.433836
 C    -0.845881    -2.445001    -2.594561
 H    -1.295680    -3.398454    -2.295212
 H    -1.473802    -1.858499    -3.273594
 C     0.558971    -2.342897    -2.688567
 H     1.182327    -3.211007    -2.453776
 H     1.007583    -1.669214    -3.425055
 H    -0.202483    -0.178563    -1.963768
Co    -0.109144    -1.355208    -1.062905
 C    -2.939274     0.307731    -1.782483
 C    -3.125351    -1.286761     0.563900
 C    -1.602742     1.125668     0.669871
 C     1.934079    -0.130072     1.403366
 C     3.291441    -1.121072    -0.873093
 C     1.899703     1.356577    -1.120298
 P     1.689776    -0.331694    -0.448456
 P    -1.870141    -0.346971    -0.391821
 C    -0.009590    -2.612290     0.152446
 O     0.077952    -3.387014     1.000744
 H    -2.409265     1.174071    -2.204944
 H    -2.884439    -0.482522    -2.543471
 C    -4.361986     0.605219    -1.430317
 C    -5.333178    -0.397333    -1.558562
 H    -5.046183    -1.370961    -1.963031
 C    -4.757631     1.838700    -0.898437
 H    -4.026590     2.641065    -0.785508
 C    -6.648246    -0.192507    -1.156442
 H    -7.402777    -0.975766    -1.246274
 C    -6.070750     2.062824    -0.490786
 H    -6.383946     3.021781    -0.074009
 C    -6.999895     1.038945    -0.618490
 F    -8.256965     1.244110    -0.221739
 C    -3.267564    -2.650473     0.295610
 H    -2.570549    -3.133198    -0.392716
 C    -4.039354    -0.680660     1.436921
 H    -3.968481     0.388372     1.646817
 C    -4.295418    -3.388446     0.879201
 H    -4.388904    -4.453639     0.650269
 C    -5.057402    -1.422763     2.022274
 H    -5.763568    -0.925949     2.693612
 C    -5.207321    -2.790035     1.753294
 C    -6.304335    -3.582131     2.401095
 H    -6.077677    -3.773535     3.463020
 H    -7.261811    -3.040337     2.368093
 H    -6.443421    -4.556108     1.911296
 C    -1.519057     2.423780     0.161208
 H    -1.657750     2.610282    -0.905137
 C    -1.345533     0.940071     2.037328
 H    -1.382427    -0.067193     2.461339
 C    -1.230479     3.504043     0.994562
 H    -1.174716     4.508095     0.565161
 C    -1.043238     2.016686     2.861995
 H    -0.846067     1.839752     3.923213
 C    -0.987511     3.324983     2.358013
 C    -0.686033     4.484325     3.261142
 H    -1.539131     4.699923     3.925275
 H     0.179844     4.274958     3.907744
 H    -0.472461     5.397673     2.688323
 H     1.262544     0.676553     1.730758
 H     1.522455    -1.058988     1.824662
 C     3.344939     0.065068     1.863100
 C     4.129725    -1.052338     2.180574
 H     3.681677    -2.048021     2.143549
 C     3.948594     1.327194     1.919096
 H     3.366830     2.219077     1.682050
 C     5.473049    -0.927376     2.516228
 H     6.087119    -1.798274     2.751597
 C     5.292314     1.472613     2.257066
 H     5.767610     2.454312     2.298903
 C     6.041897     0.339589     2.542478
 F     7.332453     0.470792     2.855270
 C     3.385872    -2.513943    -0.820076
 H     2.486443    -3.108459    -0.649322
 C     4.463018    -0.381814    -1.082812
 H     4.422298     0.708828    -1.109033
 C     4.617363    -3.150537    -0.959605
 H     4.666965    -4.241644    -0.905663
 C     5.687421    -1.022307    -1.229201
 H     6.589739    -0.422980    -1.380368
 C     5.789908    -2.418193    -1.166385
 C     7.118016    -3.096543    -1.329151
 H     7.889229    -2.616778    -0.707163
 H     7.066204    -4.158831    -1.052198
 H     7.465005    -3.040969    -2.374096
 C     2.192366     1.491113    -2.486849
 H     2.350342     0.596487    -3.094985
 C     1.675456     2.515772    -0.379638
 H     1.401101     2.457083     0.674062
 C     2.283639     2.744210    -3.075706
 H     2.517997     2.820062    -4.141409
 C     1.763596     3.774133    -0.977074
 H     1.578977     4.665420    -0.370693
 C     2.074511     3.914828    -2.329911
 C     2.188358     5.264940    -2.974231
 H     1.874745     6.066479    -2.290823
 H     3.227107     5.472210    -3.279055
 H     1.568524     5.328880    -3.882140
