 108
scf done:    -4237.564302
 C    -0.042373    -0.845765    -3.026102
 H     0.497659    -0.174812    -3.703935
 H     0.421615    -1.834332    -2.928345
 C    -1.445501    -0.731872    -2.903129
 H    -1.973644     0.034758    -3.480854
 H    -2.045718    -1.625445    -2.703104
 H    -0.547385    -1.348108    -0.658818
Co    -0.529831     0.004349    -1.260082
 C     2.022598    -1.945337    -0.378935
 C     2.749102     0.645317    -1.623030
 C     1.796167     0.580086     1.208827
 C    -2.194894     1.494612     1.385595
 C    -3.776069     0.557539    -0.919214
 C    -2.717795    -1.211772     1.178777
 P    -2.229621     0.184374     0.050257
 P     1.478825    -0.153792    -0.491849
 C    -0.466391     1.673346    -1.788772
 O    -0.395756     2.752965    -2.182263
 H     1.701309    -2.286262     0.614523
 H     1.360973    -2.439527    -1.102313
 C     3.441286    -2.345791    -0.635751
 C     3.875990    -2.594127    -1.945582
 H     3.168335    -2.502291    -2.774545
 C     4.359885    -2.518316     0.406926
 H     4.042377    -2.359391     1.437897
 C     5.190865    -2.965164    -2.217876
 H     5.534189    -3.156776    -3.235930
 C     5.677062    -2.888940     0.154227
 H     6.395536    -3.017010     0.965722
 C     6.080369    -3.099667    -1.158687
 F     7.341758    -3.451693    -1.406970
 H     3.044250    -0.154644    -2.317204
 H     2.168302     1.364486    -2.215362
 C     3.964715     1.298959    -1.037507
 C     5.160615     0.584099    -0.904136
 H     5.200464    -0.449543    -1.245925
 C     3.928444     2.652669    -0.635251
 C     2.714797     3.504757    -0.867533
 H     1.792193     3.071529    -0.455537
 H     2.524898     3.644778    -1.944219
 H     2.842348     4.501792    -0.424434
 C     6.294937     1.162088    -0.342556
 H     7.211261     0.574934    -0.247978
 C     5.073476     3.214692    -0.058163
 H     5.042296     4.260121     0.261122
 C     6.247918     2.481823     0.099416
 H     7.126400     2.948011     0.551831
 H     2.161709     1.597900     1.014874
 H     0.785031     0.680555     1.622684
 C     2.697560    -0.109438     2.184767
 C     4.037604     0.277199     2.297646
 H     4.410161     1.088560     1.670715
 C     2.203167    -1.133465     3.021251
 C     0.748003    -1.507949     3.018412
 H     0.355171    -1.676898     2.004534
 H     0.135171    -0.704723     3.463217
 H     0.569672    -2.419728     3.604640
 C     4.899861    -0.357348     3.186503
 H     5.943416    -0.040248     3.247383
 C     3.085385    -1.768141     3.903111
 H     2.706303    -2.567866     4.545342
 C     4.425871    -1.395396     3.985488
 H     5.092953    -1.908663     4.682084
 H    -3.171555     1.491468     1.893785
 H    -1.465280     1.118621     2.120233
 C    -1.806207     2.874254     0.948621
 C    -0.556520     3.402740     1.294213
 H     0.125424     2.808825     1.905649
 C    -2.666860     3.681449     0.190301
 H    -3.661175     3.321741    -0.079403
 C    -0.164456     4.675269     0.889573
 H     0.806715     5.088755     1.165312
 C    -2.288220     4.951066    -0.233587
 H    -2.954426     5.575277    -0.831340
 C    -1.032876     5.431215     0.115107
 F    -0.661439     6.644907    -0.287471
 H    -3.608726     1.579737    -1.296589
 H    -3.672620    -0.086734    -1.798554
 C    -5.141203     0.404155    -0.312584
 C    -5.583266     1.256629     0.709191
 H    -4.928581     2.052388     1.067855
 C    -6.030080    -0.581232    -0.801676
 C    -5.661146    -1.486831    -1.940386
 H    -4.761751    -2.080222    -1.720283
 H    -5.460831    -0.914345    -2.860611
 H    -6.476184    -2.190069    -2.156292
 C    -6.852424     1.137219     1.271039
 H    -7.163350     1.819849     2.065192
 C    -7.299872    -0.689633    -0.223785
 H    -7.981537    -1.456214    -0.601937
 C    -7.715727     0.150093     0.806005
 H    -8.714178     0.038586     1.235169
 H    -1.785232    -1.471993     1.705775
 H    -3.392556    -0.779174     1.928661
 C    -3.340139    -2.447691     0.585748
 C    -2.690752    -3.154404    -0.434000
 H    -1.732219    -2.776762    -0.796116
 C    -4.568715    -2.935718     1.081869
 C    -5.288267    -2.270592     2.219601
 H    -5.523778    -1.218385     2.001106
 H    -4.686535    -2.290997     3.143059
 H    -6.237041    -2.781818     2.430540
 C    -3.244737    -4.303590    -0.991592
 H    -2.716632    -4.829517    -1.790406
 C    -5.113816    -4.088616     0.504476
 H    -6.069946    -4.460892     0.882451
 C    -4.470821    -4.769779    -0.525501
 H    -4.923981    -5.666301    -0.955301
