 108
scf done:    -4237.571057
 C     0.183752     2.898211    -2.255408
 H    -0.215379     2.925791    -3.275548
 H    -0.343886     3.555156    -1.556053
 C     1.558781     2.640554    -2.048283
 H     2.208105     2.469447    -2.915123
 H     2.070369     3.085099    -1.188239
 H     0.290944     1.684971    -0.219147
Co     0.449992     1.037089    -1.539397
 C    -2.675168     1.795909    -0.759639
 C    -2.304910    -0.984609    -1.759795
 C    -1.359994    -0.276528     0.955958
 C     1.708900    -1.890901    -0.352750
 C     3.574624    -0.157421    -1.747446
 C     2.661270     0.408867     1.058744
 P     2.057299    -0.065167    -0.641822
 P    -1.448437     0.383898    -0.797031
 C     0.421784     0.193195    -3.068487
 O     0.362717    -0.408782    -4.049895
 H    -2.456756     2.340806     0.171001
 H    -2.320747     2.433691    -1.580382
 C    -4.141802     1.540524    -0.912483
 C    -4.708032     1.456776    -2.192662
 H    -4.073944     1.602412    -3.071712
 C    -4.992022     1.403543     0.192128
 H    -4.588974     1.501916     1.199659
 C    -6.064750     1.194847    -2.374567
 H    -6.506698     1.118320    -3.369467
 C    -6.349153     1.144392     0.030376
 H    -7.011315     1.029419     0.890527
 C    -6.866434     1.027456    -1.253216
 F    -8.161109     0.740086    -1.410604
 H    -2.884521    -0.476325    -2.545132
 H    -1.478683    -1.497121    -2.272880
 C    -3.142490    -1.999592    -1.043283
 C    -2.535240    -3.125498    -0.471270
 H    -1.454973    -3.267416    -0.570231
 C    -4.533145    -1.872971    -0.942361
 H    -5.022038    -1.012634    -1.399923
 C    -3.298045    -4.072738     0.209497
 H    -2.811073    -4.942964     0.656348
 C    -5.316547    -2.820399    -0.278278
 C    -6.809917    -2.678641    -0.215232
 H    -7.142406    -1.705388    -0.599335
 H    -7.304134    -3.461539    -0.813076
 H    -7.177958    -2.782885     0.817027
 C    -4.678076    -3.919555     0.311769
 H    -5.271792    -4.669703     0.841844
 H    -1.272176    -1.368405     0.862252
 H    -0.394829     0.102442     1.316352
 C    -2.434282     0.068371     1.940133
 C    -2.389617     1.283589     2.636419
 H    -1.562692     1.978593     2.466658
 C    -3.488951    -0.812705     2.200423
 H    -3.526429    -1.768090     1.674136
 C    -3.387789     1.608117     3.552607
 H    -3.341361     2.556689     4.093075
 C    -4.503206    -0.499365     3.109777
 C    -5.651337    -1.441729     3.323455
 H    -5.379011    -2.471403     3.052367
 H    -5.996551    -1.432530     4.367733
 H    -6.508752    -1.155473     2.691389
 C    -4.441107     0.726016     3.784927
 H    -5.221710     0.987637     4.504642
 H     0.879842    -1.911306     0.370766
 H     1.302571    -2.249948    -1.311161
 C     2.850506    -2.743546     0.100542
 C     3.616717    -3.469411    -0.822748
 H     3.320254    -3.483134    -1.874976
 C     3.232441    -2.794535     1.449353
 H     2.635151    -2.272242     2.199539
 C     4.755533    -4.171249    -0.434184
 H     5.362096    -4.722791    -1.154407
 C     4.367960    -3.487706     1.856953
 H     4.675926    -3.516506     2.903618
 C     5.128475    -4.152928     0.902860
 F     6.239684    -4.784633     1.281923
 H     3.642913    -1.205269    -2.076397
 H     3.306628     0.439728    -2.627439
 C     4.900155     0.293061    -1.215998
 C     5.445849     1.514387    -1.623238
 H     4.893962     2.143632    -2.325909
 C     5.624330    -0.494013    -0.311308
 H     5.220907    -1.460469    -0.003450
 C     6.678754     1.933685    -1.127341
 H     7.097184     2.889028    -1.453533
 C     6.856777    -0.085422     0.204579
 C     7.592128    -0.943230     1.194105
 H     7.232962    -1.981980     1.173332
 H     8.674364    -0.949537     0.996158
 H     7.452981    -0.566372     2.221129
 C     7.377056     1.145967    -0.215580
 H     8.342870     1.484249     0.169922
 H     1.923148    -0.051639     1.735193
 H     3.628387    -0.080241     1.241955
 C     2.742572     1.879424     1.333070
 C     3.941989     2.584783     1.183586
 H     4.853601     2.053926     0.906774
 C     1.602328     2.581857     1.731626
 H     0.673265     2.031689     1.896920
 C     3.971549     3.961865     1.382610
 H     4.912011     4.504108     1.257533
 C     1.609414     3.966295     1.924321
 C     0.343569     4.676518     2.308886
 H    -0.078950     4.266812     3.240541
 H     0.510617     5.752100     2.459769
 H    -0.424026     4.562419     1.525776
 C     2.812414     4.652445     1.734707
 H     2.843435     5.736243     1.876252
