 110
scf done:    -3665.632875
 C    -1.160026     3.263438    -1.772292
 H    -1.861215     3.149191    -2.606832
 H    -1.595268     3.762834    -0.899274
 C     0.223282     3.418231    -2.039213
 H     0.574192     3.424353    -3.077007
 H     0.833892     4.032933    -1.369826
 H     0.034565     2.143719     0.056902
Co    -0.152889     1.583773    -1.314150
 C    -2.351081     1.354936     1.200419
 C    -3.306801     0.461903    -1.426218
 C    -1.547928    -1.212389     0.160045
 C     2.689363    -0.121105    -1.999135
 C     3.025328     2.186132    -0.319370
 C     1.796866    -0.178001     0.796224
 P     1.775612     0.892573    -0.714825
 P    -1.782307     0.540936    -0.374232
 C    -0.260363     0.762211    -2.848154
 O    -0.322762     0.179499    -3.841283
 H    -1.519861     1.202879     1.907532
 H    -2.363478     2.428869     0.964449
 C    -3.658903     0.910858     1.772183
 C    -4.833215     1.617417     1.489957
 H    -4.782230     2.531004     0.891851
 C    -3.750669    -0.246165     2.556753
 H    -2.836070    -0.791839     2.806517
 C    -6.063023     1.152698     1.949767
 H    -6.974936     1.708202     1.716931
 C    -4.975628    -0.730115     3.023288
 C    -5.042309    -1.965175     3.874365
 H    -4.152493    -2.596777     3.740340
 H    -5.103228    -1.703743     4.943982
 H    -5.930480    -2.569361     3.637220
 C    -6.137842    -0.018562     2.698905
 H    -7.108348    -0.381822     3.047897
 H    -2.945073     0.387976    -2.464914
 H    -3.749119     1.468375    -1.345829
 C    -4.339243    -0.625102    -1.160164
 H    -3.860978    -1.611963    -1.277479
 H    -4.693476    -0.579744    -0.117460
 C    -5.553273    -0.581024    -2.094038
 H    -5.176171    -0.626994    -3.133542
 C    -6.434312    -1.802647    -1.857348
 H    -5.873597    -2.739312    -2.003667
 H    -7.298106    -1.816700    -2.540098
 H    -6.823219    -1.804776    -0.825211
 C    -6.363406     0.701989    -1.944103
 H    -7.231593     0.701489    -2.621307
 H    -5.769389     1.599236    -2.173928
 H    -6.739285     0.803604    -0.912983
 H    -2.503901    -1.620953     0.524848
 H    -0.864032    -1.182394     1.022647
 C    -0.974758    -2.081929    -0.949348
 H    -1.589805    -1.975266    -1.859798
 H     0.019247    -1.692976    -1.230755
 C    -0.862504    -3.571419    -0.614606
 H    -1.882262    -3.934834    -0.385499
 C    -0.349937    -4.344121    -1.824506
 H    -0.990911    -4.186190    -2.705538
 H    -0.308596    -5.426181    -1.625354
 H     0.668101    -4.016654    -2.095882
 C     0.010032    -3.837971     0.607240
 H     0.063795    -4.915491     0.826790
 H    -0.369214    -3.336908     1.510342
 H     1.041724    -3.484935     0.441372
 H     1.930986    -0.789092    -2.433700
 H     2.952335     0.602259    -2.787632
 C     3.874281    -0.906207    -1.541391
 C     5.155906    -0.347160    -1.486561
 H     5.321756     0.665320    -1.863140
 C     3.701959    -2.220992    -1.087489
 H     2.708728    -2.675097    -1.153079
 C     6.216442    -1.073751    -0.947767
 H     7.212960    -0.627200    -0.904555
 C     4.748894    -2.960233    -0.534883
 C     4.522913    -4.347575    -0.008144
 H     3.507192    -4.703149    -0.231863
 H     5.238140    -5.064285    -0.440472
 H     4.655126    -4.378072     1.085861
 C     6.014869    -2.363128    -0.462814
 H     6.851839    -2.921145    -0.033913
 H     3.171831     2.762112    -1.248941
 H     3.978197     1.682873    -0.093277
 C     2.615448     3.118564     0.810422
 H     1.642049     3.568447     0.559654
 H     2.441550     2.538624     1.734798
 C     3.626000     4.227191     1.113591
 H     3.808086     4.774794     0.169284
 C     3.041635     5.211881     2.119734
 H     2.096439     5.643938     1.756146
 H     3.736740     6.041095     2.323959
 H     2.830786     4.710789     3.079513
 C     4.961476     3.677924     1.604440
 H     5.670808     4.491501     1.821960
 H     5.436759     3.015141     0.865775
 H     4.826043     3.097791     2.533200
 H     1.437514    -1.162838     0.455912
 H     0.994147     0.228371     1.429980
 C     3.084083    -0.343536     1.597295
 H     3.947886    -0.447431     0.926203
 H     3.272057     0.565848     2.194490
 C     3.064289    -1.556116     2.531400
 H     2.884854    -2.445316     1.897720
 C     4.421571    -1.732789     3.200127
 H     5.221811    -1.825916     2.449281
 H     4.443710    -2.630594     3.837801
 H     4.661677    -0.866098     3.838702
 C     1.943137    -1.483424     3.561725
 H     1.953139    -2.363200     4.223847
 H     0.950017    -1.439785     3.088775
 H     2.050878    -0.587465     4.196406
