  84
scf done:    -5761.173357
 C    -0.620558    -1.955557    -3.300575
 H    -1.056991    -2.959922    -3.266187
 H    -1.223517    -1.228816    -3.853155
 C     0.781275    -1.801891    -3.265063
 H     1.418089    -2.690009    -3.210177
 H     1.253530    -0.959283    -3.779254
 H    -0.165128     0.099278    -2.107159
Co    -0.036617    -1.253534    -1.501044
 C    -3.093342     0.008053    -2.086824
 C    -2.999223    -1.484082     0.308067
 C    -1.691733     1.079528     0.216575
 C     1.649926    -0.676862     1.419427
 C     3.301523    -0.810703    -0.908179
 C     1.722577     1.507315    -0.553170
 P     1.597350    -0.317958    -0.432020
 P    -1.879432    -0.473235    -0.743334
 C     0.133264    -2.787177    -0.677410
 O     0.299454    -3.768383    -0.097058
 H    -2.620361     0.821926    -2.656528
 H    -3.102397    -0.866537    -2.752142
 C    -4.480390     0.340688    -1.637682
 C    -5.461059    -0.660149    -1.604681
 H    -5.210026    -1.667035    -1.947796
 C    -4.829628     1.618937    -1.182924
 H    -4.091767     2.422767    -1.200431
 C    -6.741349    -0.409433    -1.122871
 H    -7.503543    -1.189706    -1.089480
 C    -6.105758     1.888321    -0.694721
 H    -6.383199     2.882254    -0.339141
 C    -7.046333     0.866301    -0.665494
 F    -8.267234     1.117051    -0.194858
 C    -3.014837    -2.867314     0.100688
 H    -2.304072    -3.317251    -0.594780
 C    -3.943837    -0.930900     1.184432
 H    -3.989162     0.149263     1.334612
 C    -3.932901    -3.685476     0.753697
 H    -3.939477    -4.763805     0.587841
 C    -4.858998    -1.735305     1.853805
 H    -5.594218    -1.299235     2.531734
 C    -4.849140    -3.112231     1.632981
Cl    -5.993570    -4.117424     2.453137
 C    -1.561325     2.308176    -0.443931
 H    -1.611349     2.355111    -1.533625
 C    -1.546492     1.059188     1.609191
 H    -1.617412     0.113410     2.151899
 C    -1.346463     3.488418     0.258683
 H    -1.237863     4.439880    -0.264008
 C    -1.321000     2.230985     2.327884
 H    -1.214703     2.208983     3.413839
 C    -1.232038     3.442603     1.646719
Cl    -0.920383     4.900188     2.527776
 H     1.010690     0.074759     1.905115
 H     1.121686    -1.635746     1.516873
 C     3.007530    -0.777996     2.045314
 C     3.714771    -1.985732     1.952636
 H     3.236625    -2.850416     1.486352
 C     3.641021     0.303446     2.667211
 H     3.118327     1.254568     2.780377
 C     5.017001    -2.105482     2.422748
 H     5.573203    -3.040353     2.336253
 C     4.942776     0.201103     3.153282
 H     5.439004     1.043211     3.638805
 C     5.621317    -1.001380     3.012154
 F     6.871136    -1.102734     3.460916
 C     3.535752    -2.121517    -1.333674
 H     2.692625    -2.795592    -1.489135
 C     4.397550     0.039305    -0.714566
 H     4.241054     1.066534    -0.379110
 C     4.829992    -2.588137    -1.543807
 H     5.010608    -3.613627    -1.869640
 C     5.696317    -0.411810    -0.921112
 H     6.550258     0.247374    -0.758180
 C     5.905529    -1.729278    -1.328124
Cl     7.520134    -2.303473    -1.566823
 C     1.760056     2.378940     0.534913
 H     1.693113     1.999163     1.552868
 C     1.767930     2.052753    -1.845407
 H     1.727309     1.387330    -2.711366
 C     1.836046     3.759127     0.354055
 H     1.828774     4.434533     1.210574
 C     1.844052     3.424762    -2.044457
 H     1.872472     3.844698    -3.051191
 C     1.869700     4.274650    -0.936496
Cl     1.903815     5.988868    -1.173736
