  88
scf done:    -4224.077462
 C    -0.488677     3.800514    -1.180462
 H    -0.849279     4.003398    -2.194320
 H    -1.168533     4.124879    -0.386327
 C     0.896649     3.734763    -0.930643
 H     1.601402     3.894911    -1.752894
 H     1.289771     4.006203     0.052922
 H    -0.089244     2.149332     0.514365
Co     0.096613     1.876791    -0.913883
 C    -2.879441     0.851132    -2.162461
 O    -1.674035    -0.546395    -0.098493
 O    -2.915519     1.705144     0.294055
 C     1.646530    -1.123453    -0.741088
 O     2.904768     0.950828     0.587880
 O     0.792472     0.155373     1.550264
 P     1.378469     0.545671     0.052218
 P    -1.778367     1.001718    -0.695934
 C     0.424200     1.446247    -2.583544
 O     0.641802     1.113299    -3.662587
 H    -3.241983     1.881420    -2.318572
 H    -2.201442     0.628811    -2.999938
 C    -3.997663    -0.147480    -2.125627
 C    -3.997517    -1.223144    -3.019688
 H    -3.197953    -1.305994    -3.760865
 C    -5.037970    -0.058066    -1.190943
 H    -5.049270     0.769329    -0.479554
 C    -4.988989    -2.200000    -2.978053
 H    -4.992428    -3.044592    -3.669269
 C    -6.029080    -1.030509    -1.128768
 H    -6.828946    -0.983284    -0.388156
 C    -5.987607    -2.095938    -2.020148
 F    -6.927967    -3.037708    -1.953343
 C    -2.622654    -1.392241     0.418173
 C    -2.810681    -2.622523    -0.212051
 H    -2.249540    -2.838365    -1.122276
 C    -3.313478    -1.087387     1.591810
 H    -3.143114    -0.137514     2.096803
 C    -3.719377    -3.535715     0.313901
 H    -3.875568    -4.490936    -0.192787
 C    -4.220908    -2.010188     2.108293
 H    -4.764363    -1.766126     3.024187
 C    -4.433745    -3.231906     1.472807
 H    -5.150390    -3.947993     1.880256
 C    -2.669959     2.419250     1.434287
 C    -1.734618     2.011279     2.387303
 H    -1.128596     1.119015     2.224185
 C    -3.430609     3.572310     1.633896
 H    -4.152038     3.864866     0.868650
 C    -1.563317     2.776061     3.540982
 H    -0.824710     2.458607     4.280762
 C    -3.254291     4.320988     2.793815
 H    -3.851199     5.223033     2.947856
 C    -2.318078     3.927797     3.751155
 H    -2.178135     4.519560     4.658219
 H     0.943164    -1.792722    -0.221666
 H     1.263103    -1.005651    -1.764256
 C     3.036078    -1.682413    -0.767544
 C     3.850687    -1.466740    -1.886725
 H     3.451834    -0.918413    -2.743780
 C     3.567524    -2.392216     0.314735
 H     2.949358    -2.592514     1.191235
 C     5.166959    -1.912616    -1.921219
 H     5.810946    -1.729528    -2.782466
 C     4.884201    -2.844609     0.297352
 H     5.308144    -3.393333     1.140232
 C     5.671596    -2.587275    -0.817187
 F     6.939704    -3.000825    -0.829849
 C     4.005530     1.188696    -0.183738
 C     3.933239     1.817060    -1.427739
 H     2.965019     2.146148    -1.803922
 C     5.238137     0.786844     0.333991
 H     5.263221     0.287431     1.303617
 C     5.100696     2.014294    -2.163241
 H     5.039397     2.501331    -3.139553
 C     6.395403     0.992383    -0.408794
 H     7.355845     0.659828    -0.007854
 C     6.333715     1.600927    -1.663511
 H     7.244500     1.754512    -2.246102
 C     1.254371    -0.848430     2.357848
 C     2.409226    -0.669226     3.120815
 H     2.954965     0.270396     3.037371
 C     0.516366    -2.030054     2.443367
 H    -0.401072    -2.129034     1.860022
 C     2.842056    -1.700483     3.950816
 H     3.749435    -1.567281     4.544796
 C     0.960989    -3.054276     3.277813
 H     0.386536    -3.981202     3.342426
 C     2.127139    -2.896878     4.026620
 H     2.473761    -3.702583     4.677378
