  70
scf done:    -3341.718866
 C    -0.489738    -3.038850    -1.285483
 H    -1.143096    -3.747148    -0.763626
 H    -0.809823    -2.822553    -2.309158
 C     0.881572    -3.008611    -0.944419
 H     1.252470    -3.683541    -0.165924
 H     1.634507    -2.761795    -1.699059
 H     0.304300    -0.810766    -1.564495
Co    -0.036561    -1.366698    -0.241241
 C    -1.739808     0.986379    -2.030563
 C    -3.414566    -0.598416    -0.358171
 C    -1.747234     1.327224     0.822028
 C     1.625104     0.607418     2.009557
 C     3.286417    -0.837920     0.225984
 C     1.794658     1.399717    -0.778543
 P     1.611401    -0.082964     0.290276
 P    -1.681622     0.013847    -0.464904
 C    -0.413706    -1.991241     1.351845
 O    -0.638432    -2.392796     2.407855
 H    -0.785688     1.534662    -2.088775
 C    -1.914266     0.101972    -3.252788
 H    -2.860373    -0.459649    -3.212136
 H    -1.092060    -0.625414    -3.323875
 H    -2.551880     1.728114    -1.958933
 H    -1.918178     0.706198    -4.172515
 C    -3.667158    -1.971046    -0.334244
 C    -4.493113     0.295995    -0.311699
 C    -6.043902    -1.553854    -0.234672
 C    -5.799564    -0.179010    -0.252661
 C    -4.977157    -2.447941    -0.273140
 H    -2.820401    -2.657806    -0.362374
 H    -5.162082    -3.524688    -0.253099
 H    -7.070252    -1.925851    -0.184940
 H    -6.633579     0.526095    -0.213592
 H    -4.308200     1.373955    -0.304113
 C    -1.461279     2.671618     0.564883
 C    -2.021944     0.937519     2.142254
 C    -1.696973     3.203739     2.912815
 C    -2.000415     1.865968     3.176892
 C    -1.432172     3.602503     1.605688
 H    -1.242276     3.005774    -0.449904
 H    -1.200543     4.648158     1.387147
 H    -1.673171     3.932802     3.726214
 H    -2.216483     1.543590     4.198270
 H    -2.249254    -0.108830     2.362015
 H     1.336920    -0.242274     2.649110
 C     2.916218     1.234543     2.509231
 H     3.273489     2.039991     1.850499
 H     3.721080     0.487864     2.571531
 H     0.771677     1.303349     2.063841
 H     2.773115     1.661739     3.514125
 C     3.459438    -2.062631     0.884582
 C     4.393237    -0.233231    -0.378387
 C     5.809352    -2.061053     0.329312
 C     5.645453    -0.846340    -0.332416
 C     4.712376    -2.665591     0.944113
 H     2.597946    -2.547229     1.350443
 H     4.831339    -3.618888     1.464767
 H     6.791306    -2.538886     0.365603
 H     6.500187    -0.364946    -0.814097
 H     4.281465     0.726925    -0.886352
 C     1.988291     1.202530    -2.155035
 C     1.667929     2.708667    -0.304087
 C     1.922597     3.585388    -2.543631
 C     1.725401     3.793297    -1.181601
 C     2.060283     2.282811    -3.028068
 H     2.066904     0.184073    -2.544104
 H     2.213595     2.107411    -4.095583
 H     1.968237     4.434768    -3.229362
 H     1.613807     4.808016    -0.791382
 H     1.500935     2.897431     0.756470
