  76
scf done:    -3420.300523
 C     1.276810    -1.877795     1.997112
 H     2.162177    -2.503666     1.843246
 H     1.475836    -0.988703     2.603898
 C    -0.010056    -2.460889     2.005030
 H    -0.105541    -3.544719     1.873124
 H    -0.810295    -2.016817     2.604727
 H    -0.250661    -0.291624     1.040205
Co     0.301447    -1.444449     0.290865
 C     1.768037     0.033372    -2.385109
 C     1.396505     1.766953    -0.121301
 C     3.442250    -0.213212    -0.138446
 C    -1.826529    -1.837696    -2.331259
 C    -3.116590    -1.502075     0.133280
 C    -1.818673     0.742632    -1.074723
 P    -1.545277    -1.032371    -0.699921
 P     1.659802     0.005792    -0.549323
 C     0.751708    -2.844376    -0.654510
 O     1.001101    -3.765461    -1.301406
 H     2.000428    -0.989957    -2.713030
 H     0.793416     0.323634    -2.804010
 H     2.551180     0.711205    -2.753901
 C     1.361602     2.792493    -1.066263
 H     1.460646     2.575884    -2.130447
 C     1.241285     2.085864     1.234964
 H     1.238512     1.276000     1.969673
 C     1.183539     4.113628    -0.652162
 H     1.143176     4.912048    -1.397138
 C     1.083958     3.402761     1.665781
 C     0.947539     3.730606     3.124302
 H     0.109512     4.421917     3.303740
 H     0.779519     2.825979     3.725208
 H     1.857564     4.220704     3.507483
 C     1.057842     4.417487     0.697651
 H     0.925720     5.457136     1.011254
 C     4.284137     0.850307     0.196909
 H     3.891042     1.867659     0.248725
 C     3.972395    -1.508692    -0.195234
 H     3.316348    -2.346416    -0.446248
 C     5.631374     0.609391     0.468118
 H     6.286286     1.443026     0.734281
 C     5.320849    -1.762583     0.062195
 C     5.869960    -3.158772     0.004553
 H     5.124587    -3.868312    -0.380901
 H     6.759406    -3.213163    -0.642373
 H     6.176088    -3.505188     1.005026
 C     6.145605    -0.680828     0.400123
 H     7.203487    -0.856916     0.615429
 H    -1.850099    -2.922890    -2.157843
 H    -2.775737    -1.527955    -2.791853
 H    -0.987182    -1.624542    -3.009369
 C    -3.149011    -2.709316     0.836789
 H    -2.235842    -3.300698     0.927225
 C    -4.285277    -0.739574     0.028069
 H    -4.267214     0.203267    -0.525113
 C    -4.338715    -3.142306     1.418505
 H    -4.363074    -4.088676     1.964530
 C    -5.482072    -1.154824     0.619910
 C    -6.720929    -0.311035     0.528644
 H    -6.933862     0.183440     1.490879
 H    -6.616549     0.475680    -0.231785
 H    -7.603621    -0.917638     0.274887
 C    -5.492533    -2.370318     1.315483
 H    -6.419664    -2.714298     1.783120
 C    -1.861865     1.247235    -2.376944
 H    -1.765655     0.581797    -3.236856
 C    -1.957591     1.631813    -0.000565
 H    -1.904249     1.242276     1.020184
 C    -2.033363     2.616339    -2.589729
 H    -2.053944     3.007056    -3.610186
 C    -2.163862     2.996812    -0.197016
 C    -2.378638     3.918528     0.966811
 H    -2.001975     3.477104     1.899714
 H    -1.869644     4.881238     0.814440
 H    -3.452077     4.130035     1.106167
 C    -2.187555     3.480828    -1.512661
 H    -2.326626     4.551027    -1.689392
