 104
scf done:    -4035.210001
 C     1.255627    -2.284651    -2.642577
 H     1.787173    -1.930805    -3.533635
 H     1.841488    -2.977263    -2.030069
 C    -0.153760    -2.401516    -2.701459
 H    -0.670961    -2.130694    -3.628259
 H    -0.667900    -3.182909    -2.133142
 H     0.391155    -1.861038    -0.485784
Co     0.359056    -0.843749    -1.547262
 C     2.138089    -0.795774     1.367823
 C     3.554175     0.314232    -0.849324
 C     1.420921     1.750840     0.303929
 C    -1.962748     1.405423    -0.463171
 C    -3.025446    -1.142382    -1.131249
 C    -1.453096    -0.879254     1.248016
 P    -1.480189    -0.376160    -0.513415
 P     1.844443     0.047733    -0.243851
 C     0.296931     0.379082    -2.800770
 O     0.231046     1.178203    -3.628647
 H     2.846826    -0.192947     1.960322
 H     1.172276    -0.791327     1.898022
 C     2.628695    -2.226946     1.235357
 H     1.917498    -2.783398     0.601366
 H     3.596545    -2.247856     0.704155
 C     2.758508    -2.917050     2.585990
 H     1.802216    -2.820620     3.131476
 H     3.509411    -2.388216     3.201635
 C     3.129952    -4.389405     2.488460
 H     2.377766    -4.906940     1.866913
 H     4.085680    -4.490431     1.944273
 C     3.232419    -5.072586     3.842591
 H     3.489880    -6.138302     3.745100
 H     2.279454    -5.007900     4.392764
 H     4.004920    -4.600105     4.470885
 C     4.492403     1.039406    -0.095017
 H     4.197334     1.484482     0.859556
 C     3.953908    -0.208208    -2.076787
 H     3.223329    -0.760948    -2.668582
 C     5.786187     1.219972    -0.552043
 H     6.522241     1.784854     0.023298
 C     5.254593    -0.033651    -2.553201
 H     5.529077    -0.456630    -3.519792
 C     6.180492     0.680972    -1.787859
 O     7.457427     0.907541    -2.151733
 C     7.908990     0.402691    -3.376898
 H     7.342938     0.821584    -4.227599
 H     8.961484     0.698821    -3.471014
 H     7.843270    -0.699005    -3.416675
 C     1.335801     2.761164    -0.671796
 H     1.635722     2.546582    -1.700456
 C     1.044390     2.073713     1.607474
 H     1.106974     1.326996     2.399732
 C     0.851513     4.019818    -0.364252
 H     0.769628     4.798870    -1.124382
 C     0.541528     3.337928     1.932503
 H     0.241405     3.541803     2.960914
 C     0.422759     4.313833     0.940210
 O    -0.086376     5.545952     1.137427
 C    -0.576844     5.876660     2.405399
 H     0.214942     5.847012     3.174841
 H    -0.965592     6.900518     2.336304
 H    -1.397567     5.204505     2.714347
 H    -1.165030     1.917541     0.097610
 H    -1.846272     1.756102    -1.501966
 C    -3.335608     1.780388     0.072766
 H    -4.116029     1.404996    -0.609904
 H    -3.525078     1.278356     1.037119
 C    -3.478620     3.286210     0.252137
 H    -3.305615     3.787698    -0.717340
 H    -2.669422     3.650390     0.912232
 C    -4.824282     3.717846     0.815792
 H    -5.628323     3.368687     0.144259
 H    -4.996075     3.200982     1.776962
 C    -4.937502     5.220798     1.014707
 H    -5.917979     5.507122     1.424726
 H    -4.803177     5.760464     0.063495
 H    -4.165381     5.590414     1.709543
 C    -4.034347    -1.638866    -0.292687
 H    -3.892326    -1.633171     0.790556
 C    -3.246059    -1.161309    -2.510307
 H    -2.467877    -0.788929    -3.180592
 C    -5.216260    -2.140006    -0.817826
 H    -6.003201    -2.534021    -0.171809
 C    -4.434151    -1.648037    -3.052210
 H    -4.567125    -1.643973    -4.134276
 C    -5.428753    -2.147673    -2.203193
 O    -6.605498    -2.651834    -2.624011
 C    -6.870822    -2.689171    -3.997782
 H    -6.138791    -3.312355    -4.541367
 H    -7.868281    -3.131749    -4.114187
 H    -6.875213    -1.678743    -4.443783
 C    -1.274811    -2.245037     1.538733
 H    -1.269130    -2.970664     0.721359
 C    -1.443517     0.018576     2.313579
 H    -1.575056     1.086246     2.134479
 C    -1.075646    -2.685606     2.833812
 H    -0.929548    -3.743706     3.059140
 C    -1.224468    -0.408044     3.628287
 H    -1.205190     0.330857     4.429872
 C    -1.026782    -1.765000     3.893474
 O    -0.776326    -2.279191     5.113067
 C    -0.673445    -1.407412     6.203306
 H    -1.615997    -0.860551     6.382798
 H    -0.449837    -2.025698     7.081764
 H     0.141328    -0.674556     6.065408
