  80
scf done:    -3721.084399
 C     0.358942    -2.384676    -3.325940
 H     0.257796    -3.472338    -3.250597
 H    -0.387325    -1.911809    -3.972051
 C     1.626775    -1.786421    -3.170320
 H     2.502592    -2.415261    -2.978710
 H     1.859669    -0.849229    -3.683582
 H    -0.018809    -0.261354    -2.226284
Co     0.496596    -1.466645    -1.529680
 C    -2.810240    -1.169853    -2.117983
 O    -2.010800    -2.397570     0.170046
 O    -1.743991     0.125901     0.012899
 C     1.496333     0.005546     1.322942
 O     3.241092     0.141524    -0.738618
 O     1.178164     1.536690    -0.896770
 P     1.589234    -0.014264    -0.493811
 P    -1.458739    -1.245380    -0.905385
 C     0.934145    -2.895515    -0.601020
 O     1.178770    -3.828678     0.017772
 H    -2.609425    -0.350050    -2.821053
 H    -2.800019    -2.119997    -2.670657
 H    -3.791160    -1.014112    -1.648592
 C    -3.156061    -2.267592     0.905866
 C    -4.368085    -2.762855     0.426994
 H    -4.395484    -3.258644    -0.545036
 C    -3.105405    -1.655129     2.159165
 H    -2.149758    -1.272156     2.519579
 C    -5.523881    -2.625104     1.193205
 H    -6.469868    -3.012961     0.805329
 C    -4.266135    -1.528164     2.914731
 H    -4.214937    -1.040539     3.892298
 C    -5.498326    -2.004158     2.446646
 C    -6.740295    -1.882617     3.281382
 H    -7.648401    -1.942795     2.664682
 H    -6.764242    -0.930758     3.832453
 H    -6.796165    -2.691855     4.028633
 C    -2.564348     1.164343    -0.346509
 C    -3.857743     1.242613     0.166891
 H    -4.217566     0.456295     0.833362
 C    -2.086765     2.155861    -1.205298
 H    -1.066255     2.076327    -1.586167
 C    -4.667789     2.321497    -0.181794
 H    -5.682261     2.376317     0.222980
 C    -2.912007     3.223945    -1.543595
 H    -2.530194     3.997404    -2.216023
 C    -4.214761     3.330154    -1.039309
 C    -5.083224     4.503541    -1.390565
 H    -4.798513     5.396473    -0.809284
 H    -6.142625     4.298384    -1.180687
 H    -4.991677     4.768420    -2.454685
 H     1.865040    -0.959764     1.699112
 H     2.074400     0.823222     1.775246
 H     0.431720     0.104778     1.581099
 C     4.148942    -0.608117    -0.043208
 C     4.323495    -1.964696    -0.319679
 H     3.720004    -2.429028    -1.100291
 C     4.920329     0.005378     0.943597
 H     4.769732     1.067915     1.146789
 C     5.261561    -2.698917     0.400270
 H     5.383785    -3.763285     0.181259
 C     5.861168    -0.741104     1.647829
 H     6.461314    -0.251367     2.419901
 C     6.048901    -2.105013     1.394012
 C     7.081038    -2.900204     2.140190
 H     6.746220    -3.933753     2.312456
 H     7.309843    -2.448803     3.116332
 H     8.026153    -2.954369     1.574073
 C     1.626264     2.639516    -0.211750
 C     2.898972     3.156962    -0.451986
 H     3.547925     2.652805    -1.168429
 C     0.776513     3.262021     0.701172
 H    -0.217257     2.844240     0.872801
 C     3.314238     4.295658     0.233240
 H     4.314473     4.695218     0.042832
 C     1.207449     4.402084     1.374436
 H     0.535181     4.883856     2.089844
 C     2.480977     4.940287     1.156052
 C     2.928401     6.187436     1.862307
 H     2.718826     7.083808     1.254613
 H     4.010647     6.174083     2.058326
 H     2.408934     6.315597     2.822941
