  64
scf done:    -5101.041733
 C    -0.837838    -2.614886    -1.625605
 H    -1.611995    -3.347966    -1.376201
 H    -1.159991    -1.881095    -2.371149
 C     0.525427    -2.968842    -1.531856
 H     0.791894    -3.985719    -1.222067
 H     1.260260    -2.499735    -2.193009
 H     0.376691    -0.661666    -0.938681
Co     0.000226    -1.752278    -0.008655
 C    -1.778981    -0.140786     2.385092
 C    -1.591402     1.259163    -0.117575
 C    -3.310134    -0.992541     0.182338
 C     2.127222    -1.389412     2.622601
 C     3.372203    -1.220186     0.116248
 C     1.706293     0.932238     0.991078
 P     1.737448    -0.898899     0.892496
 P    -1.601747    -0.434291     0.578551
 C    -0.247502    -3.036165     1.154383
 O    -0.366457    -3.866059     1.944149
 H    -1.865153    -1.124932     2.867686
 H    -0.873563     0.355020     2.764975
 H    -2.667185     0.456313     2.637060
 C    -1.726100     2.414468     0.656610
 H    -1.854861     2.347559     1.737718
 C    -1.421726     1.395925    -1.502777
 H    -1.298970     0.501659    -2.118557
 C    -1.673138     3.679470     0.073579
 H    -1.740981     4.580654     0.684155
 C    -1.384101     2.648730    -2.100694
 H    -1.248119     2.752858    -3.178358
 C    -1.496065     3.788464    -1.302099
Cl    -1.373297     5.354067    -2.028709
 C    -4.296198    -0.137364    -0.321004
 H    -4.063051     0.911268    -0.517842
 C    -3.642344    -2.332636     0.420481
 H    -2.885196    -3.021746     0.801924
 C    -5.582582    -0.603646    -0.582581
 H    -6.348460     0.063607    -0.981301
 C    -4.926339    -2.808035     0.178402
 H    -5.182762    -3.851361     0.368809
 C    -5.891589    -1.937882    -0.328586
Cl    -7.488105    -2.524567    -0.649719
 H     2.328507    -2.470089     2.616590
 H     3.008153    -0.864722     3.019812
 H     1.255944    -1.216188     3.271299
 C     3.623128    -2.507302    -0.372921
 H     2.829533    -3.256323    -0.334534
 C     4.391360    -0.263468     0.051035
 H     4.220836     0.746886     0.429713
 C     4.861583    -2.839936    -0.912180
 H     5.056629    -3.843821    -1.292691
 C     5.631525    -0.579057    -0.497781
 H     6.424739     0.168145    -0.555190
 C     5.859616    -1.868230    -0.976308
Cl     7.398944    -2.266313    -1.660577
 C     1.680222     1.669364    -0.202423
 H     1.710993     1.144118    -1.160260
 C     1.645271     1.627411     2.202513
 H     1.675291     1.091171     3.152864
 C     1.601935     3.055030    -0.191657
 H     1.573735     3.624006    -1.121885
 C     1.541092     3.018335     2.229842
 H     1.478601     3.556230     3.177147
 C     1.517781     3.722852     1.030710
Cl     1.346388     5.444886     1.049215
