  68
scf done:    -3563.948105
 C     0.064577    -2.628403     2.479990
 H     0.710702    -3.495460     2.311976
 H     0.399385    -1.971475     3.288741
 C    -1.302694    -2.686642     2.148209
 H    -1.726352    -3.604711     1.729729
 H    -2.025625    -2.068573     2.687837
 H    -0.540932    -0.458008     1.656600
Co    -0.298722    -1.607347     0.766613
 C     2.004924     0.714566     1.636883
 O     2.815993    -1.661089     0.571355
 O     1.747393     0.072032    -0.992189
 C    -1.813059    -0.635449    -2.104991
 O    -3.334770    -0.997774     0.112844
 O    -1.797576     1.073741    -0.176786
 P    -1.767646    -0.600231    -0.293728
 P     1.512039    -0.623908     0.515867
 C    -0.008908    -2.917375    -0.374618
 O     0.183213    -3.748158    -1.141048
 H     1.264290     1.523629     1.555260
 H     1.958435     0.306415     2.656379
 H     3.008643     1.108166     1.429982
 C     4.079188    -1.343676     0.162030
 C     5.010466    -0.845833     1.074902
 H     4.716515    -0.717524     2.118249
 C     4.436405    -1.547468    -1.172508
 H     3.686359    -1.938255    -1.861537
 C     6.297623    -0.530477     0.641475
 H     7.025916    -0.139193     1.355861
 C     5.725124    -1.232556    -1.594541
 H     6.001791    -1.386660    -2.640135
 C     6.657338    -0.716734    -0.692995
 H     7.666129    -0.467415    -1.029003
 C     2.100392     1.358443    -1.294253
 C     3.420944     1.801127    -1.187726
 H     4.195177     1.118947    -0.834925
 C     1.108753     2.217767    -1.773192
 H     0.082907     1.851657    -1.838927
 C     3.736969     3.109396    -1.550344
 H     4.771627     3.450169    -1.465269
 C     1.437742     3.521258    -2.137744
 H     0.657306     4.187910    -2.513238
 C     2.751883     3.974490    -2.024211
 H     3.008190     4.997108    -2.309417
 H    -0.811361    -0.355299    -2.461464
 H    -2.022666    -1.665449    -2.428007
 H    -2.569898     0.047760    -2.513996
 C    -4.442989    -0.612738    -0.596502
 C    -5.134926    -1.584950    -1.320007
 H    -4.761024    -2.610734    -1.311405
 C    -4.895892     0.707821    -0.571678
 H    -4.351292     1.455570     0.005585
 C    -6.282815    -1.233098    -2.025667
 H    -6.824281    -1.996472    -2.589542
 C    -6.044262     1.048321    -1.284360
 H    -6.399401     2.081458    -1.264273
 C    -6.739902     0.084594    -2.013325
 H    -7.639759     0.359070    -2.568019
 C    -1.731772     1.757815     1.001689
 C    -2.388023     1.318264     2.156447
 H    -2.965637     0.392968     2.132911
 C    -1.001543     2.948439     1.019897
 H    -0.495267     3.273393     0.110405
 C    -2.294281     2.070324     3.325862
 H    -2.804779     1.719646     4.225964
 C    -0.921175     3.692306     2.194538
 H    -0.346142     4.621428     2.201029
 C    -1.561746     3.255673     3.354069
 H    -1.493437     3.839150     4.274628
