 100
scf done:    -3734.544961
 C    -2.081092     0.941983    -3.081517
 H    -2.820784     0.247990    -3.490279
 H    -2.500424     1.904824    -2.773947
 C    -0.747144     0.876247    -3.550748
 H    -0.481175     0.141134    -4.318837
 H    -0.155603     1.797161    -3.601853
 H    -0.563184     1.515238    -1.253043
Co    -0.868951     0.123520    -1.695631
 C    -2.437251     1.704817     0.913653
 C    -3.923146    -0.446981    -0.178486
 C    -1.564973    -0.989233     1.420906
 C     1.783682    -1.694800    -0.533300
 C     2.391599     0.514113    -2.354517
 C     1.520243     1.053175     0.468930
 P     1.173164    -0.019850    -1.030174
 P    -2.155776     0.112414     0.025022
 C    -1.034073    -1.551523    -2.189691
 O    -1.049035    -2.652558    -2.522338
 H    -3.163108     1.535222     1.726638
 H    -1.481870     1.962505     1.401598
 C    -2.872748     2.854578     0.019846
 H    -2.128276     2.976691    -0.784273
 H    -3.824198     2.606840    -0.483366
 C    -3.035468     4.164878     0.777041
 H    -2.082468     4.414242     1.278980
 H    -3.774031     4.035099     1.589177
 C    -3.457225     5.327580    -0.110383
 H    -2.718321     5.446789    -0.922443
 H    -4.408660     5.073365    -0.610498
 C    -3.609244     6.639408     0.642294
 H    -3.914751     7.459170    -0.025469
 H    -2.662646     6.936585     1.122019
 H    -4.367652     6.558210     1.437704
 H    -4.428208     0.385084    -0.691646
 H    -4.369642    -0.530141     0.825675
 C    -4.087052    -1.707849    -0.971554
 C    -3.863279    -2.970355    -0.406161
 H    -3.608913    -3.055673     0.652278
 C    -4.443858    -1.650695    -2.324564
 H    -4.645385    -0.678547    -2.779747
 C    -3.962533    -4.129977    -1.171291
 H    -3.776449    -5.101387    -0.707054
 C    -4.544491    -2.806719    -3.093385
 H    -4.817782    -2.732286    -4.148683
 C    -4.295314    -4.052655    -2.521585
 H    -4.365546    -4.960583    -3.124792
 H    -0.478903    -0.829692     1.453516
 H    -1.708040    -2.017260     1.055017
 C    -2.156104    -0.775505     2.778628
 C    -3.345456    -1.398993     3.180145
 H    -3.842673    -2.102708     2.508872
 C    -1.534467     0.096994     3.684095
 H    -0.596123     0.583329     3.402409
 C    -3.902462    -1.146526     4.432627
 H    -4.829620    -1.647240     4.721882
 C    -2.086810     0.350327     4.936599
 H    -1.580084     1.032809     5.623193
 C    -3.278399    -0.266973     5.315017
 H    -3.714119    -0.069733     6.297138
 H     1.275320    -1.910570     0.421799
 H     1.337187    -2.398095    -1.255315
 C     3.279424    -1.948989    -0.401270
 H     3.730604    -2.003531    -1.406667
 H     3.771776    -1.108863     0.110057
 C     3.594689    -3.231471     0.355217
 H     3.140028    -4.095394    -0.163434
 H     3.112203    -3.184698     1.348115
 C     5.087010    -3.465443     0.540176
 H     5.574677    -3.510050    -0.450164
 H     5.520485    -2.587018     1.050301
 C     5.408362    -4.725444     1.327018
 H     6.493432    -4.866627     1.446077
 H     5.008946    -5.623037     0.827781
 H     4.965518    -4.687233     2.335502
 H     1.759602     1.041801    -3.079552
 H     2.714504    -0.417312    -2.843640
 C     3.562815     1.375392    -1.997676
 C     4.850385     0.853840    -1.824036
 H     5.017031    -0.217878    -1.946706
 C     3.386931     2.759880    -1.854754
 H     2.394566     3.190869    -2.017198
 C     5.921750     1.681645    -1.496172
 H     6.917013     1.250059    -1.365076
 C     4.454471     3.590640    -1.521437
 H     4.292036     4.665803    -1.413550
 C     5.728131     3.052937    -1.335025
 H     6.567640     3.702133    -1.075870
 H     0.549465     1.086961     0.982814
 H     1.683051     2.065580     0.071653
 C     2.599886     0.666408     1.434239
 C     3.871151     1.251756     1.382908
 H     4.073636     2.033929     0.650173
 C     2.362004    -0.308170     2.414165
 H     1.369198    -0.756535     2.504740
 C     4.884244     0.837505     2.244106
 H     5.870648     1.302407     2.173822
 C     3.373089    -0.725512     3.276327
 H     3.163284    -1.493348     4.024948
 C     4.645622    -0.163134     3.185433
 H     5.442557    -0.492352     3.856330
