 100
scf done:    -3434.743102
 C    -0.593685    -1.615016    -2.510776
 H    -1.291834    -2.453900    -2.412459
 H    -0.903677    -0.882192    -3.264639
 C     0.786121    -1.835076    -2.297890
 H     1.124251    -2.842229    -2.030227
 H     1.518580    -1.265576    -2.877858
 H     0.248035     0.426627    -1.520951
Co    -0.009879    -0.797873    -0.755820
 C    -2.021886     1.566689    -1.950618
 C    -3.429290    -0.806695    -0.893574
 C    -2.267844     1.253058     0.983816
 C     1.283470     0.737545     1.942568
 C     3.072281    -1.268640     0.685647
 C     2.609874     1.422238    -0.612543
 P     1.759995     0.002217     0.272207
 P    -1.927505     0.279019    -0.578608
 C    -0.165329    -2.172208     0.308846
 O    -0.162075    -3.090750     1.010151
 H    -1.515338     1.015860    -2.759272
 C    -3.380561     1.998946    -2.489955
 H    -3.228175     2.660330    -3.358972
 H    -3.982605     1.147376    -2.836325
 H    -3.975888     2.562534    -1.757287
 C    -1.142904     2.770289    -1.620669
 H    -0.157627     2.450498    -1.252267
 H    -0.979326     3.379130    -2.524290
 H    -1.598990     3.426244    -0.863980
 H    -3.395748    -0.911717    -1.995485
 C    -4.807531    -0.256389    -0.512487
 H    -4.959835     0.759971    -0.895382
 H    -4.872338    -0.189989     0.586636
 C    -5.927959    -1.168564    -1.006022
 H    -6.906038    -0.745876    -0.723048
 H    -5.910231    -1.198527    -2.110921
 C    -5.775886    -2.581173    -0.458210
 H    -6.565366    -3.239678    -0.855641
 H    -5.912234    -2.558397     0.638431
 C    -4.396664    -3.141066    -0.779617
 H    -4.308523    -3.282529    -1.872438
 H    -4.267686    -4.138053    -0.328029
 C    -3.277043    -2.215775    -0.314434
 H    -3.271096    -2.164618     0.788331
 H    -2.307481    -2.633336    -0.607483
 H    -1.320915     1.817717     1.080206
 C    -2.356585     0.322761     2.195507
 H    -1.552096    -0.425882     2.155125
 H    -3.304492    -0.241208     2.150362
 C    -2.305053     1.104179     3.503931
 H    -2.393957     0.416664     4.360801
 H    -1.315133     1.587434     3.594104
 C    -3.387320     2.175825     3.558822
 H    -3.304747     2.761088     4.489082
 H    -4.378973     1.688520     3.585403
 C    -3.315341     3.091553     2.342770
 H    -2.368418     3.661531     2.371262
 H    -4.126538     3.837309     2.373616
 C    -3.385206     2.300269     1.037866
 H    -4.368646     1.813329     0.972088
 H    -3.320862     2.989355     0.184915
 H     0.300502     1.154375     1.676775
 C     1.032401    -0.357637     2.977789
 H     0.467767     0.054397     3.828726
 H     0.454963    -1.198563     2.573426
 H     1.969700    -0.765801     3.381374
 C     2.093755     1.879933     2.544623
 H     2.204438     2.728518     1.854946
 H     1.570366     2.257026     3.439353
 H     3.097364     1.567158     2.867687
 H     2.450736    -2.068985     1.130035
 C     4.165819    -0.934427     1.707396
 H     3.744832    -0.490631     2.619057
 H     4.855994    -0.187078     1.288931
 C     4.961473    -2.188312     2.065366
 H     5.740961    -1.940589     2.804588
 H     4.288438    -2.916081     2.554052
 C     5.584271    -2.826047     0.829002
 H     6.118940    -3.751296     1.099075
 H     6.343964    -2.138135     0.414656
 C     4.532061    -3.106965    -0.237018
 H     3.845553    -3.893775     0.124297
 H     5.004777    -3.503819    -1.150304
 C     3.717436    -1.861173    -0.570636
 H     4.381500    -1.106365    -1.028383
 H     2.947805    -2.096114    -1.314527
 H     1.918276     2.259344    -0.387955
 C     2.643454     1.279429    -2.137443
 H     1.652396     0.976627    -2.504088
 H     3.339340     0.467619    -2.411707
 C     3.084928     2.577953    -2.804204
 H     3.109611     2.447529    -3.898379
 H     2.326707     3.356993    -2.602587
 C     4.440547     3.049251    -2.292889
 H     4.709899     4.019709    -2.740796
 H     5.216902     2.331877    -2.615392
 C     4.451431     3.138593    -0.772421
 H     3.772186     3.947478    -0.445858
 H     5.455465     3.412071    -0.408718
 C     4.007125     1.825887    -0.131216
 H     4.720565     1.035366    -0.418223
 H     4.057815     1.907985     0.960542
