  80
scf done:    -3720.955292
 C    -0.507810    -2.695684    -1.640448
 H    -1.179750    -3.523184    -1.389398
 H    -0.935416    -1.997024    -2.366591
 C     0.892609    -2.879404    -1.580319
 H     1.288435    -3.861059    -1.294981
 H     1.548789    -2.317273    -2.251816
 H     0.470796    -0.620695    -0.954382
Co     0.250740    -1.758328    -0.031757
 C    -1.664983    -0.438613     2.421021
 C    -1.703671     1.061536    -0.021209
 C    -3.116730    -1.397593     0.207451
 C     2.244333    -1.077767     2.645124
 C     3.545766    -0.843924     0.167362
 C     1.623979     1.124811     0.919773
 P     1.865731    -0.688925     0.885581
 P    -1.487042    -0.645308     0.600596
 C     0.180107    -3.074980     1.115896
 O     0.174883    -3.923532     1.896567
 H    -1.607256    -1.440844     2.869247
 H    -0.829477     0.164503     2.805885
 H    -2.621684     0.022244     2.706058
 C    -1.580674     1.297866    -1.400646
 H    -1.320858     0.467795    -2.062499
 C    -2.009612     2.143702     0.802951
 H    -2.101970     2.008990     1.881238
 C    -1.774814     2.562477    -1.931362
 H    -1.684666     2.749517    -3.003159
 C    -2.197682     3.426018     0.285341
 H    -2.412378     4.247540     0.968402
 C    -2.081287     3.640817    -1.088260
 O    -2.226621     4.848454    -1.679824
 C    -2.715689     5.912453    -0.908726
 H    -2.025893     6.182248    -0.090137
 H    -2.818369     6.770802    -1.584842
 H    -3.702582     5.675896    -0.474068
 C    -3.290203    -2.774205     0.427569
 H    -2.453965    -3.373067     0.796506
 C    -4.202634    -0.668915    -0.279205
 H    -4.099292     0.402712    -0.463749
 C    -4.505751    -3.391492     0.184893
 H    -4.645441    -4.460224     0.357873
 C    -5.429481    -1.280760    -0.544250
 H    -6.250446    -0.677169    -0.932259
 C    -5.588633    -2.649691    -0.310215
 O    -6.728397    -3.334321    -0.531470
 C    -7.838757    -2.649044    -1.036377
 H    -7.631740    -2.201984    -2.024955
 H    -8.643562    -3.387498    -1.143183
 H    -8.176454    -1.850808    -0.351568
 H     2.564880    -2.128472     2.685058
 H     3.047682    -0.443307     3.047140
 H     1.339335    -0.979534     3.262357
 C     4.492236     0.191503     0.213160
 H     4.218474     1.159826     0.639751
 C     3.927374    -2.066084    -0.387394
 H     3.195435    -2.874803    -0.436316
 C     5.772489     0.007173    -0.285209
 H     6.513747     0.808373    -0.260796
 C     5.214770    -2.269331    -0.883427
 H     5.474177    -3.238424    -1.310280
 C     6.146353    -1.226391    -0.838346
 O     7.409351    -1.313256    -1.300007
 C     7.839581    -2.519629    -1.864583
 H     7.244302    -2.793110    -2.753727
 H     8.883312    -2.370520    -2.169145
 H     7.795231    -3.351933    -1.139946
 C     1.435764     1.869234     2.091286
 H     1.488860     1.385643     3.069060
 C     1.562149     1.802622    -0.302006
 H     1.688959     1.242081    -1.231744
 C     1.174539     3.234109     2.040430
 H     1.013695     3.814944     2.950640
 C     1.328516     3.169965    -0.368871
 H     1.280324     3.653305    -1.344114
 C     1.113542     3.895133     0.808797
 O     0.834603     5.214756     0.838769
 C     0.906260     5.937062    -0.361888
 H     0.162354     5.589839    -1.099130
 H     0.698184     6.984979    -0.109837
 H     1.911623     5.873394    -0.813991
