  60
scf done:    -2811.035996
 C    -0.498950    -2.541979    -1.238339
 H    -1.073576    -3.250243    -0.630831
 H    -0.980187    -2.290074    -2.190071
 C     0.913391    -2.544827    -1.155999
 H     1.402188    -3.258094    -0.483159
 H     1.507921    -2.299408    -2.039897
 H     0.134878    -0.237367    -1.530435
Co     0.140166    -0.929551    -0.219869
 C    -2.306230     0.928864    -1.636240
 C    -3.216724    -1.193170     0.117321
 C    -2.096713     1.161105     1.324038
 C     1.561592     1.964049     0.963455
 C     3.316630    -0.297154     0.870035
 C     2.569415     1.083880    -1.570199
 P     1.837538     0.385243    -0.015194
 P    -1.814870    -0.004492    -0.091096
 C     0.245930    -1.585366     1.393458
 O     0.376032    -1.989150     2.466752
 H    -1.914052     0.255204    -2.417694
 C    -3.792969     1.139707    -1.898077
 H    -3.927248     1.645479    -2.868402
 H    -4.346334     0.191629    -1.948796
 H    -4.272316     1.769589    -1.135242
 C    -1.521130     2.232060    -1.721015
 H    -0.446982     2.049685    -1.570167
 H    -1.648323     2.698206    -2.710897
 H    -1.859057     2.962249    -0.968010
 H    -3.218857    -1.815451    -0.792211
 C    -3.108845    -2.068250     1.354961
 H    -3.103235    -1.472987     2.281334
 H    -2.187814    -2.667305     1.342764
 H    -4.167539    -0.637419     0.122755
 H    -3.961352    -2.761950     1.417081
 H    -1.316773     1.932869     1.238767
 C    -3.459102     1.801144     1.538554
 H    -4.268339     1.056307     1.576776
 H    -3.705998     2.520709     0.744899
 H    -1.808852     0.569390     2.209100
 H    -3.479280     2.351671     2.492381
 H     0.636120     2.365620     0.514343
 C     1.283102     1.639609     2.427445
 H     0.885762     2.524277     2.950364
 H     0.554984     0.825043     2.540056
 H     2.204771     1.339273     2.949745
 C     2.646625     3.028239     0.840921
 H     2.776302     3.387253    -0.189294
 H     2.386498     3.901591     1.461223
 H     3.622571     2.662336     1.197769
 H     2.934674    -0.674637     1.832273
 C     4.055673    -1.406836     0.139591
 H     4.538588    -1.039941    -0.778510
 H     3.373573    -2.220877    -0.140823
 H     4.005713     0.532366     1.102646
 H     4.846841    -1.830481     0.777161
 H     3.569955     1.479283    -1.328478
 C     2.627446     0.160203    -2.774238
 H     1.622966    -0.214470    -3.019275
 H     3.273035    -0.711942    -2.599797
 H     1.941006     1.957526    -1.815040
 H     3.020167     0.697223    -3.651649
