  88
scf done:    -3426.077117
 C     1.485612    -2.661816    -1.188549
 H     2.150794    -2.432138    -2.026938
 H     2.000457    -3.099326    -0.329891
 C     0.129017    -2.971763    -1.421672
 H    -0.246830    -3.008333    -2.449891
 H    -0.394686    -3.640786    -0.733446
 H     0.134473    -1.710504     0.648599
Co     0.317652    -1.085054    -0.686614
 C     2.316310    -0.390446     2.009727
 O     3.221918     0.014796    -0.611653
 O     1.600648     1.642895     0.561983
 C    -1.507948     0.363744     1.785521
 O    -1.950002     1.192029    -0.665607
 O    -2.886608    -1.073473     0.056218
 P    -1.468454    -0.229431     0.038844
 P     1.836344     0.028396     0.273183
 C     0.392498    -0.350744    -2.275863
 O     0.453069     0.103864    -3.329410
 H     1.333830    -0.354468     2.513248
 C     2.835093    -1.820579     2.090498
 H     3.069522    -2.080516     3.134470
 H     2.090952    -2.539214     1.720099
 H     3.754172    -1.945735     1.496662
 C     3.240364     0.599672     2.708744
 H     2.881528     1.632349     2.606957
 H     3.294700     0.356769     3.782054
 H     4.266701     0.546497     2.316828
 C     4.314025     0.911672    -0.488780
 H     4.393949     1.455044    -1.447136
 H     4.119940     1.660703     0.295087
 C     5.599052     0.155471    -0.221672
 H     6.421682     0.889835    -0.155891
 H     5.538023    -0.326238     0.770157
 C     5.915347    -0.895314    -1.276501
 H     6.005409    -0.402602    -2.260911
 H     5.053153    -1.576769    -1.359918
 C     7.178871    -1.683543    -0.974884
 H     8.060410    -1.025068    -0.909822
 H     7.096460    -2.216296    -0.013547
 H     7.382475    -2.435004    -1.752585
 C     1.156252     2.517055    -0.463521
 H     2.041675     2.978574    -0.938350
 H     0.615763     1.950211    -1.238021
 C     0.246847     3.573902     0.121200
 H    -0.062321     4.242535    -0.701709
 H    -0.674641     3.080021     0.469109
 C     0.871198     4.384694     1.246595
 H     1.775173     4.898042     0.872306
 H    -0.574242     0.946130     1.881389
 C    -0.089904     5.398150     1.845933
 H    -0.436228     6.120615     1.089120
 H    -0.984069     4.900684     2.255429
 H     0.376330     5.969909     2.662644
 H     1.220359     3.691525     2.029635
 C    -2.696347     1.272064     2.078387
 H    -2.691784     1.561737     3.141201
 H    -2.671358     2.185404     1.470630
 H    -3.643839     0.751760     1.871251
 C    -1.467778    -0.816933     2.749763
 H    -0.649396    -1.515089     2.520092
 H    -1.333383    -0.458290     3.782119
 H    -2.410575    -1.382701     2.706100
 C    -2.473766     1.182987    -1.981993
 H    -1.962491     1.982303    -2.545540
 H    -2.234937     0.231784    -2.489964
 C    -3.972368     1.409429    -1.970416
 H    -4.342280     1.329277    -3.008238
 H    -4.441235     0.589130    -1.400573
 C    -4.381261     2.748520    -1.374408
 H    -3.922228     3.562789    -1.963348
 H    -3.951444     2.827649    -0.362945
 C    -5.887306     2.940767    -1.312548
 H    -6.341996     2.888462    -2.315233
 H    -6.361732     2.159820    -0.696580
 H    -6.155160     3.915356    -0.876978
 C    -3.110393    -2.219748    -0.747127
 H    -4.048505    -2.049366    -1.304070
 H    -2.290006    -2.326009    -1.473984
 C    -3.218771    -3.457426     0.117021
 H    -3.315942    -4.337773    -0.542687
 H    -2.264319    -3.578716     0.659246
 C    -4.373869    -3.413632     1.107096
 H    -5.325311    -3.348662     0.549727
 H    -4.303636    -2.479018     1.687909
 C    -4.404729    -4.607943     2.045995
 H    -4.492231    -5.555225     1.489471
 H    -3.481887    -4.665325     2.645725
 H    -5.252656    -4.554098     2.745595
