  74
scf done:    -4039.272946
 C    -0.269110    -2.498368    -2.369331
 H    -0.532360    -3.553242    -2.238766
 H    -1.081969    -1.869745    -2.745942
 C     1.068772    -2.141292    -2.619515
 H     1.844858    -2.910982    -2.666220
 H     1.302459    -1.245348    -3.202632
 H     0.049755    -0.371884    -1.192965
Co     0.560458    -1.677187    -0.710933
 C    -2.067146    -2.310221     1.480734
 O    -0.923499     0.117804     1.353788
 O    -2.377636    -0.637749    -0.631286
 C     2.326230     0.392180     1.330585
 O     3.645407    -1.124384    -0.510800
 O     2.410053     0.901213    -1.309411
 P     2.166154    -0.423347    -0.296503
 P    -1.150886    -1.203062     0.342977
 C     1.136421    -3.135977     0.071049
 O     1.525924    -4.077562     0.600399
 H    -2.370953    -3.190111     0.890596
 C    -1.235414    -2.719479     2.686944
 H    -0.926218    -1.840774     3.272263
 H    -0.325882    -3.263168     2.393593
 H    -2.994586    -1.799251     1.788045
 H    -1.815575    -3.379822     3.348290
 C    -1.841928     1.105321     1.569136
 C    -2.611674     1.119881     2.731857
 H    -2.494379     0.319936     3.465189
 C    -1.973964     2.125599     0.625809
 H    -1.367574     2.085924    -0.278280
 C    -3.518722     2.156659     2.949104
 H    -4.133067     2.196049     3.850333
 C    -2.873492     3.164497     0.837040
 H    -2.981793     3.971882     0.110175
 C    -3.639063     3.164797     1.999322
 F    -4.503720     4.156162     2.210802
 C    -3.691872    -1.014692    -0.620251
 C    -4.654136    -0.193355    -0.030359
 H    -4.345399     0.735677     0.449599
 C    -4.072811    -2.199668    -1.253763
 H    -3.307833    -2.819536    -1.726174
 C    -5.996282    -0.563109    -0.065326
 H    -6.767480     0.063059     0.386755
 C    -5.412810    -2.574834    -1.285792
 H    -5.735075    -3.496193    -1.774062
 C    -6.359614    -1.751061    -0.688119
 F    -7.643293    -2.106903    -0.716588
 H     1.463930     1.075526     1.389926
 C     2.289875    -0.598075     2.482971
 H     3.138032    -1.297367     2.447227
 H     1.361970    -1.186284     2.457144
 H     3.247247     0.997209     1.331638
 H     2.328762    -0.071600     3.447800
 C     4.849636    -0.607799    -0.108615
 C     5.589752    -1.330949     0.828066
 H     5.178832    -2.264908     1.216080
 C     5.359191     0.576673    -0.645429
 H     4.773950     1.118536    -1.388103
 C     6.835222    -0.868524     1.242564
 H     7.433443    -1.417938     1.971545
 C     6.602425     1.044977    -0.226770
 H     7.024741     1.967426    -0.629532
 C     7.324775     0.319542     0.712735
 F     8.514653     0.769214     1.110476
 C     1.482035     1.883680    -1.497150
 C     1.526527     3.039944    -0.712814
 H     2.294708     3.131587     0.056580
 C     0.519340     1.763959    -2.503983
 H     0.503608     0.867084    -3.123546
 C     0.607535     4.065252    -0.919007
 H     0.621054     4.972811    -0.313279
 C    -0.406309     2.784087    -2.711065
 H    -1.173065     2.705810    -3.483554
 C    -0.354686     3.918563    -1.910261
 F    -1.262057     4.882195    -2.084179
