  68
scf done:    -5401.823941
 C     0.673071    -0.833606     4.052551
 H     1.019244    -1.795939     4.442664
 H     1.317692     0.012483     4.309702
 C    -0.701364    -0.620402     3.833007
 H    -1.421239    -1.418841     4.037829
 H    -1.115377     0.389815     3.902591
 H     0.540989     0.572835     2.070339
Co     0.258524    -0.889824     2.068628
 C     3.441723     0.194519     2.007198
 O     2.773016    -1.904548     0.420295
 O     1.989448     0.382951    -0.265926
 C    -1.171846    -0.469901    -0.978158
 O    -2.802855    -1.045938     1.108214
 O    -1.735965     1.276244     1.025338
 P    -1.321760    -0.329413     0.827187
 P     2.055533    -0.574506     1.118806
 C     0.115192    -2.632782     1.932897
 O     0.029879    -3.770795     1.820674
 H     3.125152     1.182264     2.369765
 H     3.669662    -0.439579     2.875759
 H     4.336657     0.303564     1.378916
 C     3.951889    -1.870186    -0.270778
 C     5.126742    -2.285499     0.357353
 H     5.084115    -2.616860     1.396613
 C     3.978770    -1.462695    -1.606210
 H     3.049924    -1.149322    -2.082958
 C     6.331132    -2.283471    -0.340042
 H     7.254922    -2.607763     0.141493
 C     5.181389    -1.457376    -2.306693
 H     5.214915    -1.142650    -3.351032
 C     6.353930    -1.863186    -1.669397
Cl     7.851065    -1.852278    -2.540114
 C     2.255610     1.723173    -0.297636
 C     3.478999     2.160780    -0.808155
 H     4.209361     1.421381    -1.143558
 C     1.299792     2.648045     0.130265
 H     0.344951     2.298883     0.528696
 C     3.751094     3.522800    -0.892705
 H     4.702602     3.876869    -1.292526
 C     1.572672     4.011208     0.049802
 H     0.834402     4.743180     0.381393
 C     2.796132     4.443149    -0.460767
Cl     3.133062     6.139157    -0.562665
 H    -1.049067    -1.533096    -1.231643
 H    -2.036235    -0.067101    -1.523881
 H    -0.248314     0.056815    -1.258362
 C    -3.498393    -1.814788     0.215274
 C    -3.220008    -3.179554     0.119870
 H    -2.436261    -3.612472     0.744736
 C    -4.500295    -1.246405    -0.572466
 H    -4.710745    -0.179342    -0.484768
 C    -3.938784    -3.976195    -0.766263
 H    -3.728743    -5.043623    -0.849385
 C    -5.223527    -2.041600    -1.456727
 H    -6.009985    -1.607763    -2.076235
 C    -4.937996    -3.402975    -1.552254
Cl    -5.833732    -4.391861    -2.656759
 C    -2.838539     1.859179     0.466713
 C    -4.055950     1.825538     1.148834
 H    -4.111932     1.302151     2.104145
 C    -2.737048     2.521754    -0.757364
 H    -1.773989     2.558303    -1.270304
 C    -5.176520     2.441894     0.600928
 H    -6.134445     2.420630     1.122908
 C    -3.856612     3.138079    -1.309814
 H    -3.790383     3.659113    -2.266121
 C    -5.073530     3.090134    -0.630504
Cl    -6.469167     3.849629    -1.318164
