 104
scf done:    -4035.198917
 C    -1.301917    -0.910240    -2.981651
 H    -2.117588    -1.640521    -2.939906
 H    -1.597130     0.049521    -3.416271
 C     0.037908    -1.348091    -3.070999
 H     0.252528    -2.421543    -3.111404
 H     0.788832    -0.739755    -3.582229
 H    -0.048696     0.685867    -1.699678
Co    -0.365783    -0.679503    -1.210258
 C    -1.806992     2.189768     0.117883
 C    -3.585758     0.162278    -0.934347
 C    -2.289535    -0.154237     1.597959
 C     1.543286     1.198879     0.825268
 C     2.099237    -1.625404     0.869971
 C     2.946675     0.105065    -1.371954
 P     1.529712    -0.297130    -0.260616
 P    -1.940718     0.355611    -0.141788
 C    -0.612852    -2.317644    -0.648507
 O    -0.712867    -3.422455    -0.339198
 H    -2.792646     2.554478     0.444777
 H    -1.146169     2.277208     0.995815
 C    -1.239772     3.027642    -1.016728
 H    -0.332642     2.537745    -1.407714
 H    -1.936102     3.052579    -1.872301
 C    -0.906244     4.448586    -0.585213
 H    -0.212590     4.408549     0.275721
 H    -1.816316     4.950568    -0.208620
 C    -0.281511     5.286304    -1.691883
 H     0.620488     4.769742    -2.065485
 H    -0.975715     5.329261    -2.549822
 C     0.080150     6.695804    -1.252602
 H     0.530746     7.275722    -2.072383
 H     0.802402     6.680636    -0.420200
 H    -0.808537     7.246838    -0.904481
 C    -4.243223     1.200487    -1.590658
 H    -3.803702     2.198968    -1.590584
 C    -4.180401    -1.116465    -0.943912
 O    -3.503592    -2.080718    -0.293818
 C    -3.998533    -3.388169    -0.260590
 H    -4.964486    -3.443436     0.271490
 H    -3.251271    -3.984983     0.275957
 H    -4.123199    -3.802654    -1.276292
 C    -5.460184     0.997595    -2.244366
 H    -5.951922     1.829076    -2.753733
 C    -5.402702    -1.326511    -1.587641
 H    -5.864465    -2.314203    -1.586622
 C    -6.036801    -0.267137    -2.237771
 H    -6.990297    -0.442100    -2.742036
 C    -1.390830    -1.009232     2.232200
 H    -0.520469    -1.352451     1.671795
 C    -3.424688     0.275350     2.317958
 O    -4.264726     1.116864     1.682535
 C    -5.507544     1.420078     2.246105
 H    -6.089410     0.506968     2.460603
 H    -6.047874     2.017755     1.500802
 H    -5.409047     2.008081     3.175924
 C    -1.585198    -1.444813     3.542919
 H    -0.858742    -2.116714     4.004803
 C    -3.636617    -0.168829     3.627423
 H    -4.516479     0.155006     4.184245
 C    -2.715331    -1.023878     4.233758
 H    -2.893883    -1.359051     5.258668
 H     1.082305     1.979777     0.200524
 H     0.820644     1.004785     1.636700
 C     2.874321     1.691788     1.369971
 H     3.390042     0.885301     1.916230
 H     3.535261     1.946463     0.524720
 C     2.717010     2.908834     2.271070
 H     2.061208     2.653804     3.124126
 H     2.186607     3.706543     1.718214
 C     4.038576     3.451878     2.795774
 H     4.564367     2.650393     3.344681
 H     4.689762     3.702077     1.939522
 C     3.879933     4.669043     3.692397
 H     4.851206     5.038574     4.055134
 H     3.261565     4.437335     4.574703
 H     3.388023     5.497225     3.156950
 C     2.050077    -1.520285     2.259092
 H     1.782363    -0.569548     2.722670
 C     2.433988    -2.873077     0.306194
 O     2.473288    -2.900555    -1.038211
 C     2.570309    -4.126900    -1.704463
 H     3.539379    -4.621778    -1.515448
 H     2.488347    -3.905053    -2.775800
 H     1.751601    -4.806258    -1.411419
 C     2.321550    -2.616686     3.081889
 H     2.274989    -2.507248     4.167539
 C     2.701848    -3.974828     1.119380
 H     2.951174    -4.940310     0.678364
 C     2.646135    -3.840122     2.507910
 H     2.855436    -4.707327     3.138886
 C     2.652688     0.817089    -2.535914
 H     1.604085     1.051409    -2.735330
 C     4.299219    -0.196205    -1.102228
 O     4.568608    -0.823993     0.056687
 C     5.871555    -1.229376     0.353012
 H     6.272594    -1.913803    -0.415148
 H     5.817200    -1.762261     1.311109
 H     6.557665    -0.369950     0.457217
 C     3.645837     1.218571    -3.428865
 H     3.379868     1.776407    -4.328966
 C     5.297808     0.179397    -2.008114
 H     6.341273    -0.063926    -1.806663
 C     4.968664     0.884058    -3.165057
 H     5.762146     1.174240    -3.858306
