 120
scf done:    -4492.963603
 C    -1.246964     2.948482    -1.090621
 H    -1.963788     2.933109    -1.917065
 H    -1.649727     3.359232    -0.159107
 C     0.133605     3.038380    -1.347010
 H     0.487637     3.104763    -2.380269
 H     0.814431     3.485182    -0.617965
 H    -0.382197     1.543607     0.596551
Co    -0.349979     1.150904    -0.824458
 C    -3.006768     0.819161     1.268846
 C    -3.296824    -0.824914    -0.981837
 C    -1.260452    -1.546050     0.827776
 C     2.201194    -1.110113    -0.990330
 C     3.070247     1.569345    -0.731849
 C     1.805025     0.307224     1.610231
 P     1.645663     0.478547    -0.230743
 P    -1.936309    -0.026986     0.019755
 C    -0.345593     0.427282    -2.412504
 O    -0.320386    -0.123046    -3.430103
 H    -3.483865     0.067588     1.911655
 H    -2.328393     1.418740     1.891973
 C    -4.057518     1.697931     0.600794
 H    -3.610370     2.257471    -0.235798
 H    -4.835285     1.058496     0.150896
 C    -4.704301     2.673943     1.572620
 H    -3.924165     3.329289     2.002552
 H    -5.130001     2.116665     2.427808
 C    -5.787992     3.533589     0.937471
 H    -5.355419     4.077583     0.079161
 H    -6.565876     2.875988     0.510419
 C    -6.424258     4.520546     1.902797
 H    -7.202485     5.126960     1.414401
 H    -5.673961     5.213837     2.316591
 H    -6.893375     4.000797     2.754117
 C    -4.030327    -1.915486    -0.471571
 O    -3.866324    -2.195506     0.837863
 C    -4.238678    -3.446646     1.338648
 H    -3.837904    -3.503163     2.359257
 H    -5.335590    -3.570358     1.375305
 H    -3.800944    -4.266268     0.743597
 C    -3.607914    -0.398488    -2.287667
 O    -3.055505     0.756585    -2.695375
 C    -3.166149     1.151802    -4.031608
 H    -2.574466     2.071170    -4.130417
 H    -4.212326     1.368612    -4.310654
 H    -2.753632     0.390656    -4.715015
 C    -4.477536    -1.134579    -3.106023
 H    -4.681251    -0.815376    -4.127093
 C    -4.900504    -2.658458    -1.279156
 H    -5.437485    -3.516411    -0.875782
 C    -5.097694    -2.268658    -2.598228
 H    -5.774205    -2.843504    -3.235477
 C    -1.121087    -1.732135     2.211156
 O    -1.403283    -0.673148     2.994693
 C    -1.517706    -0.843402     4.376763
 H    -1.804201     0.133640     4.786759
 H    -2.295918    -1.585080     4.632113
 H    -0.561660    -1.146269     4.833361
 C    -0.859622    -2.596629    -0.019351
 O    -0.925821    -2.331438    -1.336333
 C    -0.574360    -3.301738    -2.277758
 H    -0.673827    -2.820055    -3.258076
 H    -1.245120    -4.177354    -2.228682
 H     0.470269    -3.635625    -2.147811
 C    -0.449011    -3.834003     0.490735
 H    -0.171342    -4.648199    -0.177773
 C    -0.723857    -2.970945     2.735333
 H    -0.651105    -3.117784     3.812374
 C    -0.409725    -4.012355     1.869425
 H    -0.108168    -4.980090     2.278225
 H     1.588093    -1.896169    -0.532492
 H     1.880451    -1.014966    -2.038740
 C     3.679084    -1.453362    -0.921811
 H     4.251742    -0.734158    -1.531081
 H     4.046599    -1.336594     0.109929
 C     3.963418    -2.867640    -1.406935
 H     3.608724    -2.976237    -2.448892
 H     3.360340    -3.581580    -0.815375
 C     5.431037    -3.262057    -1.327234
 H     6.029877    -2.545703    -1.916932
 H     5.776494    -3.147068    -0.284143
 C     5.706888    -4.678298    -1.805768
 H     6.774910    -4.935106    -1.733353
 H     5.403908    -4.810360    -2.857164
 H     5.146371    -5.417412    -1.210050
 C     4.070845     2.082988     0.117235
 O     4.154104     1.565103     1.355913
 C     4.907144     2.205709     2.340929
 H     4.684635     1.686987     3.282895
 H     5.992163     2.141616     2.143016
 H     4.625776     3.268668     2.442460
 C     3.135120     1.948136    -2.089505
 O     2.299141     1.298906    -2.922213
 C     2.221255     1.672124    -4.268337
 H     1.443860     1.040511    -4.714251
 H     3.177422     1.503198    -4.793850
 H     1.933158     2.732149    -4.379994
 C     4.038450     2.914993    -2.546466
 H     4.050886     3.215198    -3.593075
 C     4.972809     3.061055    -0.326297
 H     5.719775     3.470332     0.352842
 C     4.935356     3.480435    -1.648894
 H     5.639396     4.240870    -1.995201
 C     1.584017     1.480891     2.362732
 O     1.477085     2.619011     1.653161
 C     0.877750     3.744184     2.228729
 H     0.726900     4.466309     1.416190
 H    -0.101244     3.494769     2.671927
 H     1.518613     4.205523     3.000979
 C     2.052038    -0.873495     2.332449
 O     2.283989    -2.006574     1.637517
 C     2.818630    -3.120923     2.288602
 H     3.008817    -3.872121     1.511209
 H     2.115942    -3.550796     3.020877
 H     3.768595    -2.875841     2.795923
 C     2.058141    -0.877925     3.736971
 H     2.254132    -1.801408     4.279595
 C     1.547738     1.478183     3.759308
 H     1.367632     2.400314     4.310867
 C     1.798494     0.291185     4.437188
 H     1.796184     0.278667     5.530097
