  70
scf done:    -5179.602982
 C     0.209857    -3.547815     0.971046
 H     0.960714    -4.188903     0.496170
 H     0.332195    -3.463643     2.053402
 C    -1.077195    -3.470189     0.399568
 H    -1.290407    -4.046265    -0.507765
 H    -1.951176    -3.307333     1.036878
 H    -0.671125    -1.298230     1.360316
Co    -0.080051    -1.751949     0.068786
 C     1.662684    -0.100473     2.543363
 C     3.279376    -1.128127     0.451653
 C     1.691496     1.134949    -0.036046
 C    -1.747501    -0.095450    -2.425013
 C    -3.367637    -0.982686    -0.283319
 C    -1.609629     1.241907     0.141709
 P    -1.642183    -0.435119    -0.605029
 P     1.563707    -0.524794     0.750074
 C     0.551958    -2.178183    -1.506351
 O     0.934157    -2.432432    -2.561915
 H     0.783714     0.526914     2.761417
 C     1.687122    -1.317411     3.450206
 H     2.516632    -1.995279     3.196061
 H     0.749970    -1.884404     3.367248
 H     2.561123     0.518934     2.698433
 H     1.811650    -1.013615     4.500406
 C     3.503639    -2.474591     0.155464
 H     2.648789    -3.147344     0.079378
 C     4.380917    -0.266107     0.541707
 H     4.229443     0.796116     0.751980
 C     4.793975    -2.961437    -0.041620
 H     4.966809    -4.013261    -0.274572
 C     5.674489    -0.735924     0.346500
 H     6.532037    -0.064196     0.410678
 C     5.873183    -2.086850     0.056167
Cl     7.481078    -2.677292    -0.191721
 C     1.715405     2.338403     0.673778
 H     1.672085     2.344650     1.763311
 C     1.739890     1.185563    -1.436911
 H     1.737761     0.256544    -2.013546
 C     1.761171     3.563903     0.011353
 H     1.742567     4.499807     0.572221
 C     1.792592     2.398979    -2.112013
 H     1.826556     2.434036    -3.202271
 C     1.787805     3.586829    -1.378743
Cl     1.770662     5.106826    -2.209347
 H    -1.566965    -1.071137    -2.903441
 C    -3.026639     0.527166    -2.961978
 H    -3.290407     1.462133    -2.446703
 H    -3.878644    -0.156987    -2.841424
 H    -0.855425     0.507662    -2.665468
 H    -2.925602     0.751201    -4.035289
 C    -3.762380    -2.215932    -0.820441
 H    -3.038894    -2.823879    -1.367710
 C    -4.314775    -0.225966     0.412475
 H    -4.044996     0.747865     0.824865
 C    -5.062060    -2.684688    -0.670090
 H    -5.364439    -3.644190    -1.092592
 C    -5.617999    -0.689460     0.583733
 H    -6.353121    -0.096944     1.130787
 C    -5.985659    -1.917542     0.040669
Cl    -7.603494    -2.498012     0.245396
 C    -1.483953     2.413699    -0.611276
 H    -1.434835     2.374399    -1.699268
 C    -1.637013     1.352788     1.539738
 H    -1.716484     0.447298     2.147297
 C    -1.380526     3.659053     0.002746
 H    -1.247781     4.562684    -0.594202
 C    -1.544646     2.589764     2.168451
 H    -1.562065     2.668609     3.256840
 C    -1.405469     3.739598     1.391406
Cl    -1.207616     5.277590     2.162225
