  88
scf done:    -3974.183869
 C     1.409225    -1.516736    -2.995607
 H     1.881016    -0.930863    -3.792732
 H     2.075104    -2.258849    -2.544369
 C     0.018456    -1.759430    -3.071519
 H    -0.547693    -1.352033    -3.915805
 H    -0.402184    -2.689252    -2.676473
 H     0.553300    -1.638391    -0.787203
Co     0.404951    -0.430967    -1.616070
 C     2.289481    -0.837245     1.194494
 C     3.473920     0.915942    -0.719488
 C     1.241519     1.789235     0.756912
 C    -2.131348     1.310146    -0.137385
 C    -2.909394    -1.164919    -1.283953
 C    -1.359268    -1.181810     1.126455
 P    -1.447515    -0.364096    -0.514750
 P     1.828674     0.311188    -0.169297
 C     0.201250     1.016629    -2.583933
 O     0.044168     1.967227    -3.214862
 H     2.928956    -0.303964     1.917834
 H     1.349365    -1.098801     1.707229
 C     2.970087    -2.104253     0.703675
 H     2.334842    -2.568165    -0.070003
 H     3.922468    -1.849184     0.206685
 C     3.221946    -3.103216     1.823815
 H     2.263816    -3.327647     2.327645
 H     3.863978    -2.640951     2.595858
 C     3.858212    -4.401105     1.347389
 H     3.214350    -4.853167     0.572136
 H     4.813617    -4.172379     0.842957
 C     4.095072    -5.402657     2.465956
 H     4.551971    -6.331252     2.091703
 H     3.150870    -5.674071     2.965470
 H     4.765282    -4.989561     3.236986
 C     4.337661     1.574474     0.167458
 H     4.023051     1.765020     1.197282
 C     3.885506     0.711657    -2.038247
 H     3.205095     0.207368    -2.725456
 C     5.589793     2.010445    -0.249423
 H     6.273616     2.527984     0.425867
 C     5.137429     1.143938    -2.472284
 H     5.472290     0.992858    -3.500047
 C     5.973355     1.785703    -1.568881
 F     7.170284     2.203827    -1.972101
 C     1.034142     2.977947     0.038856
 H     1.318434     3.032382    -1.014817
 C     0.876011     1.755424     2.106661
 H     1.031361     0.853592     2.699549
 C     0.449801     4.087962     0.635586
 H     0.275281     5.011306     0.080493
 C     0.279203     2.859095     2.718195
 H    -0.020906     2.838120     3.767670
 C     0.061252     4.006866     1.969839
 F    -0.531381     5.053687     2.539719
 H    -1.410950     1.783363     0.549130
 H    -2.032152     1.873038    -1.080242
 C    -3.552553     1.416069     0.393790
 H    -4.260946     1.083895    -0.383147
 H    -3.703973     0.724547     1.240463
 C    -3.894500     2.834047     0.832345
 H    -3.748061     3.523213    -0.019247
 H    -3.172680     3.164488     1.602642
 C    -5.311109     2.983220     1.368190
 H    -6.026745     2.654706     0.593925
 H    -5.451184     2.288614     2.215647
 C    -5.643044     4.400235     1.806805
 H    -6.670784     4.476871     2.192790
 H    -5.548654     5.109598     0.968926
 H    -4.961555     4.741988     2.602502
 C    -3.814880    -1.966836    -0.580552
 H    -3.644003    -2.187533     0.475216
 C    -3.161648    -0.889700    -2.634520
 H    -2.456917    -0.273474    -3.197442
 C    -4.943364    -2.490172    -1.208065
 H    -5.654683    -3.121647    -0.672610
 C    -4.292039    -1.391857    -3.270215
 H    -4.499971    -1.182715    -4.321068
 C    -5.167982    -2.193137    -2.546056
 F    -6.245443    -2.688102    -3.150235
 C    -1.017575    -2.543500     1.165869
 H    -0.882178    -3.090609     0.229556
 C    -1.503274    -0.499119     2.337966
 H    -1.761651     0.559889     2.348039
 C    -0.823666    -3.204995     2.371901
 H    -0.557843    -4.262967     2.409207
 C    -1.295275    -1.144279     3.558093
 H    -1.395633    -0.615566     4.507774
 C    -0.955969    -2.489551     3.558970
 F    -0.751206    -3.111078     4.716887
