  90
scf done:    -3203.862224
 C     0.286533     1.552811    -2.438119
 H     1.012079     2.355694    -2.265149
 H     0.479035     0.975552    -3.348668
 C    -1.042838     1.704269    -1.979447
 H    -1.332659     2.623945    -1.459610
 H    -1.860140     1.248783    -2.549212
 H    -0.474128    -0.675962    -1.777326
Co    -0.041702     0.389900    -0.828930
 C     1.806301    -2.322703    -1.811776
 C     3.239334     0.136730    -1.609412
 C     2.460858    -1.278056     0.778178
 C    -1.194110    -2.179131     0.999719
 C    -2.435241     0.333846     1.604405
 C    -3.085869    -1.012526    -0.893283
 P    -1.655462    -0.574306     0.197607
 P     1.793177    -0.736523    -0.862839
 C     0.425118     1.452795     0.470029
 O     0.716750     2.093938     1.384918
 H     1.072755    -2.977757    -1.312642
 C     1.458856    -2.170246    -3.283371
 H     2.213454    -1.575223    -3.820185
 H     0.487277    -1.666672    -3.401292
 H     2.793668    -2.798604    -1.692547
 H     1.401025    -3.151906    -3.778064
 H     4.082828    -0.569060    -1.707141
 H     2.933416     0.413318    -2.631257
 C     3.663916     1.383830    -0.848954
 H     2.793099     2.049733    -0.734059
 H     3.972888     1.116141     0.177067
 C     4.795171     2.143659    -1.527052
 H     4.483448     2.420106    -2.550856
 H     5.667246     1.475294    -1.650544
 C     5.220374     3.395755    -0.772974
 H     4.343700     4.055531    -0.648600
 H     5.526821     3.114483     0.250267
 C     6.345268     4.159079    -1.453018
 H     6.629545     5.057586    -0.884552
 H     6.052413     4.484538    -2.464303
 H     7.246459     3.533487    -1.558687
 H     2.406538    -0.389026     1.429412
 H     1.711664    -1.979538     1.182031
 C     3.849727    -1.896278     0.842276
 H     3.910138    -2.772595     0.173919
 H     4.598324    -1.178263     0.465846
 C     4.240581    -2.322085     2.251694
 H     3.498749    -3.047579     2.633028
 H     4.175781    -1.448770     2.926037
 C     5.633778    -2.928858     2.342384
 H     5.694471    -3.797958     1.663281
 H     6.370199    -2.200333     1.959081
 C     6.018337    -3.352123     3.750827
 H     7.029264    -3.785815     3.784068
 H     5.319492    -4.107048     4.145916
 H     6.000945    -2.495548     4.443800
 H    -0.445405    -1.894992     1.758077
 C    -2.266747    -3.063632     1.614627
 H    -2.957265    -3.455944     0.853792
 H    -2.864737    -2.529671     2.368569
 H    -0.637618    -2.731170     0.224687
 H    -1.810307    -3.931429     2.116462
 H    -3.254534    -0.264495     2.036763
 H    -1.654282     0.412935     2.380569
 C    -2.929996     1.724792     1.232275
 H    -2.093302     2.307509     0.816500
 H    -3.671223     1.655888     0.416450
 C    -3.541546     2.476359     2.405501
 H    -2.796611     2.544209     3.219193
 H    -4.385490     1.893828     2.819232
 C    -4.021645     3.874816     2.043518
 H    -3.174367     4.448814     1.628833
 H    -4.760470     3.802782     1.225496
 C    -4.627373     4.629311     3.215836
 H    -4.963821     5.635408     2.922747
 H    -3.898078     4.747815     4.033410
 H    -5.498191     4.094612     3.628711
 H    -3.107403    -0.230040    -1.667302
 H    -2.771977    -1.930005    -1.421840
 C    -4.474074    -1.178730    -0.290401
 H    -4.465444    -1.922932     0.521523
 H    -4.791290    -0.231490     0.177271
 C    -5.513918    -1.585609    -1.326462
 H    -5.212417    -2.542101    -1.791642
 H    -5.519312    -0.845483    -2.147299
 C    -6.919399    -1.721045    -0.757472
 H    -6.906724    -2.457793     0.065520
 H    -7.214484    -0.763005    -0.293656
 C    -7.954899    -2.128358    -1.793105
 H    -8.959280    -2.217002    -1.351973
 H    -7.704327    -3.100397    -2.247782
 H    -8.014179    -1.390786    -2.609637
