  64
scf done:    -3659.928673
 C    -0.778285    -2.460798    -1.723218
 H    -1.527826    -3.216623    -1.466490
 H    -1.130596    -1.736674    -2.464637
 C     0.596160    -2.776441    -1.648069
 H     0.894938    -3.786359    -1.344735
 H     1.307961    -2.286844    -2.319544
 H     0.392556    -0.475814    -1.049972
Co     0.056569    -1.577501    -0.117329
 C    -1.720854     0.002581     2.300270
 C    -1.631467     1.387879    -0.215348
 C    -3.271366    -0.911484     0.137583
 C     2.193635    -1.154960     2.495815
 C     3.414102    -0.941427    -0.021684
 C     1.685533     1.154156     0.873246
 P     1.777692    -0.673976     0.769019
 P    -1.571854    -0.299959     0.492350
 C    -0.137365    -2.868489     1.047286
 O    -0.217947    -3.702449     1.838004
 H    -1.766304    -0.980271     2.791045
 H    -0.825621     0.530946     2.659403
 H    -2.623471     0.571982     2.565051
 C    -1.498638     1.516692    -1.605790
 H    -1.341612     0.621802    -2.212660
 C    -1.805078     2.544374     0.550497
 H    -1.901475     2.482106     1.635223
 C    -1.549985     2.761987    -2.219376
 H    -1.451783     2.873540    -3.300725
 C    -1.840359     3.803242    -0.048258
 H    -1.947502     4.715194     0.541442
 C    -1.715077     3.893967    -1.426878
 F    -1.739557     5.091641    -2.006379
 C    -4.300869    -0.081559    -0.321165
 H    -4.106443     0.976260    -0.510363
 C    -3.551619    -2.265391     0.366759
 H    -2.759196    -2.932359     0.713654
 C    -5.579720    -0.586011    -0.547608
 H    -6.388718     0.049695    -0.912144
 C    -4.827068    -2.779795     0.159404
 H    -5.056443    -3.831858     0.337708
 C    -5.826544    -1.930182    -0.301526
 F    -7.046191    -2.417928    -0.515030
 H     2.427864    -2.228957     2.486533
 H     3.061026    -0.604077     2.887501
 H     1.322260    -1.009421     3.151158
 C     4.407225     0.043908    -0.075712
 H     4.209232     1.042722     0.319833
 C     3.696127    -2.214286    -0.532461
 H     2.921769    -2.983335    -0.501189
 C     5.653025    -0.229735    -0.634678
 H     6.434966     0.529838    -0.690685
 C     4.940624    -2.505402    -1.082506
 H     5.173473    -3.493186    -1.484257
 C     5.902935    -1.503589    -1.130612
 F     7.091612    -1.769627    -1.666335
 C     1.606776     1.844017     2.087000
 H     1.665831     1.306536     3.035203
 C     1.623356     1.891424    -0.319653
 H     1.668302     1.367951    -1.277817
 C     1.446058     3.229919     2.118182
 H     1.367244     3.775912     3.059943
 C     1.492115     3.272897    -0.305462
 H     1.436913     3.853333    -1.227677
 C     1.385955     3.923872     0.919190
 F     1.206948     5.242681     0.937873
