  70
scf done:    -3738.490232
 C    -0.434570    -3.161296    -1.304443
 H    -1.115086    -3.865057    -0.812011
 H    -0.703371    -2.949267    -2.343539
 C     0.918640    -3.138290    -0.898100
 H     1.244350    -3.815162    -0.101240
 H     1.708867    -2.900369    -1.616539
 H     0.384761    -0.937446    -1.559345
Co    -0.020227    -1.484760    -0.249139
 C    -1.677240     0.827740    -2.138147
 C    -3.389536    -0.733322    -0.480525
 C    -1.771937     1.228739     0.701077
 C     1.558028     0.483037     2.066139
 C     3.284596    -0.923556     0.308838
 C     1.800177     1.304887    -0.703682
 P     1.599597    -0.192150     0.340865
 P    -1.660041    -0.112974    -0.552555
 C    -0.465274    -2.095043     1.331760
 O    -0.736389    -2.482599     2.381851
 H    -0.727680     1.385534    -2.176816
 C    -1.803369    -0.081484    -3.347990
 H    -2.742114    -0.656161    -3.324008
 H    -0.969552    -0.798006    -3.382240
 H    -2.498605     1.562241    -2.107602
 H    -1.790134     0.505669    -4.278455
 C    -4.477234     0.151973    -0.476123
 H    -4.304181     1.231679    -0.483884
 C    -3.637107    -2.107069    -0.438313
 H    -2.787844    -2.791139    -0.434240
 C    -5.782908    -0.322932    -0.440257
 H    -6.640851     0.351855    -0.432240
 C    -4.940371    -2.599636    -0.400093
 H    -5.148322    -3.670487    -0.364665
 C    -5.995942    -1.698378    -0.404071
 F    -7.244355    -2.156489    -0.366358
 C    -2.077550     0.868253     2.023399
 H    -2.294360    -0.175197     2.265690
 C    -1.500817     2.572021     0.423218
 H    -1.258931     2.890449    -0.591311
 C    -2.105153     1.814472     3.040079
 H    -2.343099     1.541895     4.069805
 C    -1.516906     3.533321     1.435021
 H    -1.303398     4.583642     1.227493
 C    -1.816120     3.141167     2.731726
 F    -1.832452     4.051887     3.701953
 H     1.253018    -0.373173     2.689021
 C     2.829970     1.109631     2.613397
 H     3.207694     1.922294     1.975210
 H     3.634387     0.364574     2.696036
 H     0.700489     1.175353     2.100276
 H     2.652977     1.526836     3.616916
 C     4.403430    -0.284918    -0.236659
 H     4.297316     0.689739    -0.717181
 C     3.458078    -2.166288     0.933118
 H     2.591649    -2.680307     1.355167
 C     5.665058    -0.873274    -0.172844
 H     6.544465    -0.387892    -0.600048
 C     4.713268    -2.758309     1.019200
 H     4.859691    -3.724976     1.504371
 C     5.803430    -2.103205     0.456612
 F     7.006019    -2.669059     0.522822
 C     2.028476     1.128670    -2.078081
 H     2.116754     0.116889    -2.481878
 C     1.663297     2.608783    -0.217722
 H     1.470683     2.788073     0.840002
 C     2.126259     2.214363    -2.939958
 H     2.305585     2.083474    -4.008590
 C     1.744672     3.709532    -1.071024
 H     1.630966     4.729189    -0.698359
 C     1.976981     3.498043    -2.422435
 F     2.056769     4.542065    -3.242553
