 104
scf done:    -4035.351897
 C    -1.503158     1.794071    -2.601016
 H    -2.349696     1.361101    -3.142399
 H    -1.761116     2.666614    -1.993784
 C    -0.191787     1.638784    -3.086491
 H    -0.018197     1.094909    -4.020706
 H     0.570819     2.387213    -2.854605
 H    -0.057377     1.535099    -0.667991
Co    -0.507678     0.403241    -1.507906
 C    -1.366212     0.925639     1.747019
 O    -3.343701     0.552500     0.096074
 O    -1.795494    -1.499209     0.591675
 C     2.022087    -1.867013    -1.344116
 O     2.728433     0.653451    -1.399644
 O     1.531935    -0.146256     0.750238
 P     1.385497    -0.208152    -0.918683
 P    -1.727929     0.116007     0.161262
 C    -0.967627    -0.998987    -2.460595
 O    -1.236881    -1.925226    -3.083315
 H    -1.993869     0.477980     2.533302
 H    -0.318651     0.654066     1.953449
 C    -1.541049     2.436946     1.698857
 H    -1.020389     2.838745     0.811380
 H    -2.608875     2.673271     1.559702
 C    -1.011430     3.129846     2.945847
 H     0.072757     2.932402     3.036332
 H    -1.469794     2.678613     3.844557
 C    -1.259024     4.631549     2.952363
 H    -0.856190     5.066773     2.021395
 H    -2.347072     4.816931     2.919785
 C    -0.650868     5.339630     4.151737
 H    -0.857837     6.420417     4.135159
 H     0.443551     5.211237     4.177411
 H    -1.049234     4.938791     5.097744
 C    -4.107201     0.341326    -1.019390
 C    -4.117576    -0.892572    -1.664467
 H    -3.512120    -1.709404    -1.266394
 C    -4.888991     1.397545    -1.487613
 H    -4.859046     2.353616    -0.962431
 C    -4.883647    -1.083151    -2.820969
 C    -4.850150    -2.408247    -3.524340
 H    -3.816562    -2.680988    -3.788709
 H    -5.241073    -3.210252    -2.877959
 H    -5.449831    -2.392532    -4.444900
 C    -5.666954     1.205788    -2.623594
 H    -6.279227     2.027348    -3.003291
 C    -5.658154    -0.019320    -3.292601
 H    -6.262076    -0.151644    -4.193813
 C    -2.343677    -2.078995     1.700258
 C    -3.557488    -1.666483     2.250697
 H    -4.094163    -0.832163     1.796407
 C    -1.651190    -3.161638     2.249710
 H    -0.717005    -3.479574     1.783180
 C    -4.085064    -2.319842     3.371975
 C    -5.384975    -1.853694     3.961438
 H    -5.282153    -0.848184     4.400664
 H    -6.170371    -1.789904     3.192626
 H    -5.735415    -2.531101     4.752424
 C    -2.177166    -3.815020     3.357749
 H    -1.640710    -4.663826     3.788837
 C    -3.382933    -3.396553     3.920742
 H    -3.787487    -3.916370     4.792712
 H     1.424189    -2.554894    -0.719115
 H     1.666128    -2.029196    -2.376095
 C     3.510480    -2.173756    -1.250965
 H     4.066381    -1.439604    -1.855548
 H     3.864030    -2.045786    -0.217717
 C     3.837639    -3.586234    -1.714315
 H     3.507667    -3.722105    -2.760705
 H     3.252624    -4.311429    -1.119397
 C     5.318082    -3.921800    -1.599349
 H     5.900008    -3.190963    -2.188463
 H     5.635829    -3.779780    -0.551102
 C     5.656731    -5.332473    -2.052745
 H     6.732411    -5.544256    -1.955700
 H     5.380716    -5.490543    -3.107834
 H     5.114752    -6.084339    -1.456589
 C     2.825958     2.014485    -1.393141
 C     2.357603     2.788052    -0.327649
 H     1.878955     2.299187     0.522222
 C     3.458869     2.616982    -2.479987
 H     3.815847     1.988258    -3.297210
 C     2.499504     4.179169    -0.346757
 C     1.958888     5.012490     0.778703
 H     1.783581     4.409405     1.680687
 H     2.644510     5.832182     1.039856
 H     0.996798     5.471580     0.497097
 C     3.610750     3.999993    -2.494705
 H     4.105953     4.478175    -3.343286
 C     3.133237     4.777724    -1.441619
 H     3.256131     5.863540    -1.466947
 C     2.556712    -0.681034     1.484359
 C     3.801693    -0.056471     1.530404
 H     3.959300     0.861049     0.960651
 C     2.313726    -1.847103     2.210270
 H     1.318695    -2.294010     2.177657
 C     4.845632    -0.616307     2.274705
 C     6.198344     0.034377     2.279800
 H     6.726414    -0.154585     1.330680
 H     6.117627     1.125881     2.391748
 H     6.828817    -0.349758     3.093785
 C     3.348213    -2.403027     2.956614
 H     3.171849    -3.317687     3.527722
 C     4.605154    -1.799571     2.982832
 H     5.410728    -2.247534     3.570151
