  88
scf done:    -3577.437924
 C    -0.505387    -2.973330     0.115867
 H    -1.380540    -3.476897    -0.308551
 H     0.394170    -3.596056     0.081091
 C    -0.670021    -2.026769     1.164931
 H    -1.677242    -1.848925     1.561409
 H     0.087840    -1.956483     1.954896
 H    -0.112414     0.386458    -0.475450
Co    -0.233055    -1.105838    -0.565754
 C     1.912359     0.332697     1.592001
 C     2.792479    -2.155159     0.396518
 C     2.833910     0.310168    -1.126925
 C    -2.547518     0.691479    -2.186247
 C    -3.567524    -1.591044    -0.771024
 C    -2.802587     0.793126     0.678817
 P    -2.201005    -0.315005    -0.693738
 P     1.752829    -0.635815     0.055157
 C     0.062763    -1.633216    -2.195658
 O     0.274235    -2.049041    -3.252146
 H     1.413556     1.298805     1.439411
 H     1.385542    -0.193062     2.399946
 H     2.959673     0.498368     1.879977
 H     2.262035    -2.658901     1.220634
 H     2.663630    -2.793585    -0.488823
 C     4.232795    -1.946010     0.742168
 C     4.588498    -1.606015     2.054614
 H     3.805761    -1.554018     2.815805
 C     5.250321    -2.065252    -0.230630
 C     4.950017    -2.509352    -1.634303
 H     4.243893    -1.839355    -2.146754
 H     4.499844    -3.515342    -1.648654
 H     5.867691    -2.547962    -2.236775
 C     5.908751    -1.347268     2.410285
 H     6.155670    -1.084580     3.441647
 C     6.572557    -1.798891     0.143347
 H     7.359619    -1.890026    -0.610341
 C     6.907937    -1.433806     1.444392
 H     7.949554    -1.231717     1.704567
 H     3.871739     0.118949    -0.811975
 H     2.688964    -0.160727    -2.110141
 C     2.615123     1.795780    -1.194227
 C     3.317027     2.622248    -0.307654
 H     3.995258     2.162735     0.416164
 C     1.764440     2.388040    -2.151223
 C     1.012244     1.554085    -3.143170
 H     0.380575     0.822323    -2.620619
 H     1.691673     0.983874    -3.797789
 H     0.376539     2.178045    -3.786482
 C     3.188403     4.007358    -0.341571
 H     3.752400     4.625907     0.360444
 C     1.649829     3.782726    -2.176432
 H     0.998029     4.241206    -2.925508
 C     2.349349     4.593236    -1.285744
 H     2.243070     5.679753    -1.334896
 H    -1.812298     1.504241    -2.247017
 H    -2.418706     0.058505    -3.076634
 H    -3.560673     1.117746    -2.173854
 H    -3.481885    -2.011562    -1.785913
 H    -3.262199    -2.389335    -0.080953
 C    -4.961166    -1.121455    -0.488658
 C    -5.694759    -0.474064    -1.492014
 H    -5.257783    -0.381759    -2.489502
 C    -5.553961    -1.298320     0.781317
 C    -4.869650    -2.069575     1.875348
 H    -3.909945    -1.624245     2.180715
 H    -4.647536    -3.102364     1.561848
 H    -5.504647    -2.123346     2.769998
 C    -6.967532     0.036123    -1.253732
 H    -7.514944     0.536246    -2.056134
 C    -6.832718    -0.776026     1.005134
 H    -7.290265    -0.911317     1.989132
 C    -7.536539    -0.104552     0.008948
 H    -8.533228     0.292092     0.215542
 H    -3.654887     1.364294     0.275469
 H    -3.224243     0.128076     1.439701
 C    -1.784611     1.711551     1.288954
 C    -1.181665     2.704953     0.507679
 H    -1.456900     2.797932    -0.545090
 C    -1.427236     1.607826     2.649326
 C    -2.033417     0.572398     3.554145
 H    -1.792777    -0.448673     3.220210
 H    -3.131581     0.653590     3.596047
 H    -1.655815     0.682986     4.579926
 C    -0.237166     3.579264     1.034411
 H     0.232207     4.324863     0.391082
 C    -0.485296     2.503685     3.169652
 H    -0.213070     2.424092     4.225843
 C     0.113386     3.479188     2.378040
 H     0.855287     4.156463     2.807464
