  88
scf done:    -5415.296258
 C     1.123831    -1.522392    -3.187035
 H     1.644097    -0.955238    -3.967302
 H     1.699933    -2.367856    -2.798517
 C    -0.287922    -1.579721    -3.224739
 H    -0.822188    -1.053330    -4.022615
 H    -0.813355    -2.470415    -2.866504
 H     0.330586    -1.662507    -0.966974
Co     0.311841    -0.397973    -1.714205
 C     2.132075    -1.183025     1.070099
 C     3.568532     0.409307    -0.818600
 C     1.509145     1.575229     0.714495
 C    -1.908774     1.553365    -0.019579
 C    -3.077500    -0.667100    -1.341606
 C    -1.472571    -1.141730     0.988147
 P    -1.495743    -0.160469    -0.561724
 P     1.851994     0.052763    -0.266140
 C     0.280862     1.116141    -2.600017
 O     0.237386     2.107870    -3.183307
 H     2.891822    -0.789279     1.765899
 H     1.181238    -1.250125     1.622582
 C     2.512728    -2.570797     0.584038
 H     1.744671    -2.913768    -0.130089
 H     3.461949    -2.534639     0.021388
 C     2.619012    -3.559241     1.737861
 H     1.719112    -3.466329     2.371613
 H     3.468219    -3.281350     2.388328
 C     2.763621    -5.009651     1.302515
 H     1.918533    -5.268283     0.639500
 H     3.671686    -5.121961     0.684258
 C     2.808702    -5.977330     2.474304
 H     2.887773    -7.022635     2.139399
 H     1.901190    -5.889981     3.094007
 H     3.670779    -5.771686     3.129117
 C     3.930475     0.195160    -2.149522
 H     3.173734    -0.167547    -2.846120
 C     4.533222     0.890086     0.077444
 H     4.264314     1.088488     1.118751
 C     5.230649     0.442285    -2.586161
 H     5.514387     0.275722    -3.626503
 C     5.833829     1.141092    -0.342504
 H     6.586657     1.518735     0.351294
 C     6.175273     0.911795    -1.677243
Cl     7.793243     1.224366    -2.206395
 C     1.165121     1.553948     2.070450
 H     1.219656     0.626913     2.641625
 C     1.445752     2.800787     0.033529
 H     1.722261     2.851597    -1.022335
 C     0.710693     2.703527     2.716990
 H     0.423186     2.676035     3.769535
 C     1.002476     3.955815     0.665251
 H     0.935891     4.900194     0.122880
 C     0.609591     3.894147     2.003711
Cl    -0.024037     5.306477     2.779653
 H    -1.083859     1.863980     0.640644
 H    -1.786206     2.166103    -0.928320
 C    -3.256285     1.831685     0.627396
 H    -4.063841     1.655901    -0.102655
 H    -3.445767     1.122548     1.451575
 C    -3.330822     3.258008     1.157430
 H    -3.170795     3.963537     0.321831
 H    -2.487479     3.434488     1.849802
 C    -4.635595     3.595075     1.863179
 H    -5.480543     3.422559     1.173332
 H    -4.785644     2.889772     2.700087
 C    -4.675857     5.023364     2.382637
 H    -5.614535     5.238656     2.915139
 H    -4.586453     5.749114     1.558366
 H    -3.842495     5.216999     3.077259
 C    -3.313231    -0.253878    -2.658781
 H    -2.535633     0.291258    -3.198970
 C    -4.079398    -1.375455    -0.670068
 H    -3.922870    -1.701319     0.360642
 C    -4.520069    -0.529694    -3.291956
 H    -4.703333    -0.204345    -4.317187
 C    -5.287153    -1.672582    -1.296957
 H    -6.066758    -2.229320    -0.774455
 C    -5.501572    -1.245023    -2.605672
Cl    -7.001303    -1.607669    -3.389996
 C    -1.417085    -0.574680     2.264013
 H    -1.520338     0.503046     2.395043
 C    -1.336900    -2.534512     0.871663
 H    -1.367137    -2.997558    -0.117861
 C    -1.188375    -1.364451     3.392747
 H    -1.121608    -0.914575     4.384746
 C    -1.126370    -3.335210     1.985171
 H    -1.008769    -4.415397     1.884925
 C    -1.030211    -2.738961     3.244448
Cl    -0.681079    -3.723209     4.624876
