  88
scf done:    -3277.638360
 C    -0.159202    -2.320843     0.394825
 H    -1.085854    -2.648140    -0.086881
 H     0.711622    -2.915122     0.098136
 C    -0.199088    -1.738266     1.680782
 H    -1.149772    -1.623963     2.209558
 H     0.634726    -1.913571     2.367852
 H     0.094948     0.857596     1.195898
Co     0.134132    -0.321944     0.272964
 C     2.363255     0.137333     2.766681
 C     3.388173    -1.349357     0.568995
 C     2.977859     1.591299     0.416559
 C    -1.805951     2.341435    -0.016221
 C    -2.739170     0.167450    -1.562088
 C    -3.050115     0.162831     1.455413
 P    -1.867231     0.507374     0.057819
 P     2.154207     0.003279     0.941950
 C     0.450403    -0.147988    -1.417432
 O     0.611505    -0.046987    -2.560969
 H     1.592630     0.809345     3.165055
 H     2.222287    -0.848410     3.229984
 H     3.359114     0.516962     3.037856
 H     3.033316    -2.155330     1.242357
 C     4.841669    -1.043374     0.936073
 H     4.919089    -0.683225     1.974042
 H     5.215605    -0.227385     0.292670
 C     5.732160    -2.269538     0.746676
 H     6.778291    -2.016106     0.984804
 H     5.428710    -3.048823     1.469127
 C     5.625498    -2.828085    -0.667546
 H     6.245055    -3.733797    -0.770324
 H     6.035353    -2.089009    -1.380087
 C     4.176271    -3.124815    -1.035822
 H     3.797275    -3.941326    -0.394193
 H     4.108362    -3.489647    -2.073469
 C     3.288640    -1.897863    -0.856446
 H     3.591723    -1.124537    -1.581329
 H     2.241685    -2.136326    -1.089493
 H     3.926725     1.622158     0.984663
 C     2.134224     2.798653     0.833162
 H     1.915768     2.765515     1.912252
 H     1.160208     2.723004     0.322734
 C     2.810303     4.117873     0.476574
 H     2.159937     4.960247     0.763997
 H     3.738134     4.226315     1.067520
 C     3.149157     4.185483    -1.007092
 H     3.668605     5.128259    -1.244084
 H     2.211846     4.189012    -1.592538
 C     3.993510     2.989080    -1.426127
 H     4.974278     3.041851    -0.918731
 H     4.201879     3.022255    -2.507782
 C     3.315408     1.668161    -1.072625
 H     2.392438     1.561657    -1.664440
 H     3.967850     0.832412    -1.364674
 H    -1.065470     2.614182    -0.781708
 H    -2.771826     2.803818    -0.263934
 H    -1.448113     2.727994     0.947643
 H    -2.085548     0.733225    -2.255464
 C    -4.157739     0.716438    -1.727088
 H    -4.212928     1.774335    -1.427149
 H    -4.844504     0.166391    -1.061135
 C    -4.640404     0.563067    -3.168163
 H    -5.671088     0.942720    -3.262606
 H    -4.014295     1.193951    -3.824719
 C    -4.558317    -0.885100    -3.636442
 H    -4.872339    -0.966258    -4.689809
 H    -5.272087    -1.494329    -3.052006
 C    -3.153616    -1.446231    -3.450427
 H    -2.452556    -0.913113    -4.117563
 H    -3.119138    -2.506673    -3.748534
 C    -2.672132    -1.293809    -2.011570
 H    -3.299341    -1.916377    -1.351125
 H    -1.644066    -1.667141    -1.910929
 H    -2.357415     0.147098     2.317626
 C    -3.680273    -1.229439     1.349717
 H    -2.914141    -1.990070     1.136996
 H    -4.380020    -1.246166     0.497010
 C    -4.444905    -1.585363     2.620291
 H    -4.905874    -2.581015     2.516989
 H    -3.731722    -1.658579     3.461216
 C    -5.503113    -0.536494     2.941225
 H    -6.020312    -0.784034     3.882416
 H    -6.275266    -0.549212     2.150313
 C    -4.893137     0.858157     3.021052
 H    -4.204356     0.903152     3.884089
 H    -5.675694     1.611275     3.209411
 C    -4.120070     1.216066     1.753089
 H    -4.823569     1.290455     0.907196
 H    -3.664195     2.210516     1.870333
