  64
scf done:    -3111.846801
 C     0.260810    -2.362866     2.165918
 H     0.853013    -3.243072     1.892306
 H     0.618571    -1.857125     3.068271
 C    -1.117735    -2.322044     1.854278
 H    -1.579693    -3.171037     1.339619
 H    -1.798693    -1.780756     2.517927
 H    -0.356399    -0.060231     1.648121
Co    -0.074144    -1.094096     0.633910
 C     2.276760     0.496386     2.447432
 O     3.172186    -0.491260     0.268516
 O     1.548281     1.487431     0.013928
 C    -0.821793     0.737029    -2.070223
 O    -2.861563    -0.379762    -0.994127
 O    -1.780808     1.513423     0.380769
 P    -1.396923     0.150344    -0.448413
 P     1.691129     0.033077     0.789746
 C     0.162985    -2.242887    -0.667526
 O     0.263653    -2.991607    -1.536113
 H     1.492445     1.068565     2.960941
 H     2.471743    -0.426648     3.010102
 H     3.207840     1.077378     2.394942
 C     3.312129    -1.308139    -0.891012
 H     2.391935    -1.231876    -1.498188
 C     3.504420    -2.747484    -0.456523
 H     2.664765    -3.067533     0.175790
 H     4.432163    -2.843948     0.128408
 H     3.561350    -3.419512    -1.325561
 C     4.477167    -0.773840    -1.699422
 H     4.297384     0.266169    -2.007307
 H     5.399713    -0.799519    -1.099410
 H     4.633205    -1.381381    -2.603300
 C     2.586090     2.463536    -0.060245
 H     3.541232     1.991244     0.231772
 C     2.267596     3.614785     0.875367
 H     2.201828     3.276835     1.918527
 H     1.300848     4.063425     0.601751
 H     3.043574     4.392871     0.814324
 C     2.690524     2.909789    -1.505826
 H     2.889372     2.051174    -2.162925
 H     1.748514     3.379140    -1.829903
 H     3.502130     3.641739    -1.633420
 H     0.123329     1.274471    -1.920908
 H    -0.641532    -0.151654    -2.692206
 H    -1.564461     1.372631    -2.572491
 C    -3.667401    -1.281492    -0.233257
 H    -3.263781    -1.339148     0.791300
 C    -3.596284    -2.653443    -0.873067
 H    -2.558462    -3.012745    -0.900994
 H    -3.973087    -2.609813    -1.906732
 H    -4.200531    -3.381130    -0.310558
 C    -5.076589    -0.726400    -0.191382
 H    -5.093863     0.263419     0.286214
 H    -5.476468    -0.622445    -1.211891
 H    -5.741114    -1.395484     0.375571
 C    -2.600559     2.554129    -0.146595
 H    -3.146724     2.173044    -1.028644
 C    -1.725561     3.728318    -0.545312
 H    -0.990985     3.437477    -1.308538
 H    -1.174148     4.097094     0.332919
 H    -2.335450     4.552077    -0.946152
 C    -3.606967     2.923517     0.925035
 H    -4.213093     2.050031     1.202923
 H    -3.085171     3.276094     1.827729
 H    -4.280027     3.720300     0.574489
