 104
scf done:    -4035.337658
 C     0.472066     0.869318    -3.823798
 H     0.084609     1.556349    -4.581023
 H     1.557662     0.945129    -3.685408
 C    -0.185834    -0.349229    -3.559463
 H    -1.080707    -0.627752    -4.122309
 H     0.402511    -1.195305    -3.194096
 H    -1.742893     1.337113    -2.962043
Co    -0.599480     1.004372    -2.115812
 C     2.526526     1.684763    -0.795829
 O     0.693558     0.450037     0.745782
 O     1.806417    -0.888378    -1.174493
 C    -2.320436     0.253337     0.755150
 O    -3.632721     0.507107    -1.616846
 O    -2.395744    -1.613297    -1.183066
 P    -2.145595     0.047488    -1.055312
 P     1.078170     0.572583    -0.869861
 C    -0.751781     2.719972    -1.919114
 O    -0.933581     3.855434    -1.871625
 H     3.284507     1.206661    -0.152819
 H     2.961715     1.728158    -1.807539
 C     2.176794     3.077265    -0.285059
 H     1.576642     3.612369    -1.036372
 H     1.529165     2.995532     0.605826
 C     3.406432     3.904127     0.062293
 H     4.056669     3.986193    -0.827361
 H     4.008038     3.368430     0.820268
 C     3.066186     5.295889     0.576137
 H     2.466908     5.824577    -0.185534
 H     2.407610     5.202513     1.458106
 C     4.289674     6.123418     0.934231
 H     4.010803     7.122074     1.302775
 H     4.946992     6.263085     0.060932
 H     4.888049     5.634149     1.719840
 C     1.446568    -0.139427     1.723808
 C     2.397266     0.588347     2.437797
 H     2.557168     1.642962     2.208306
 C     1.215925    -1.479920     2.031588
 H     0.471326    -2.037412     1.463372
 C     3.133178    -0.041645     3.440032
 H     3.883197     0.533328     3.989994
 C     1.955596    -2.092026     3.037572
 H     1.770394    -3.146088     3.262476
 C     2.932027    -1.389872     3.757085
 C     3.708773    -2.055244     4.855935
 H     4.655296    -1.532844     5.055242
 H     3.941180    -3.101521     4.608154
 H     3.133818    -2.064487     5.797017
 C     3.138522    -1.164944    -1.343375
 C     3.937043    -1.533043    -0.261831
 H     3.505029    -1.575437     0.738603
 C     3.676895    -1.132471    -2.630095
 H     3.030543    -0.865696    -3.469467
 C     5.276756    -1.849328    -0.477269
 H     5.895105    -2.137633     0.377328
 C     5.016900    -1.451163    -2.826219
 H     5.427649    -1.424850    -3.839392
 C     5.845132    -1.809601    -1.755032
 C     7.297852    -2.119770    -1.972430
 H     7.455994    -2.674712    -2.909089
 H     7.709996    -2.718634    -1.147799
 H     7.895444    -1.195090    -2.038157
 H    -3.302450    -0.139269     1.065331
 H    -1.551511    -0.401180     1.193331
 C    -2.097351     1.682704     1.227191
 H    -1.244953     2.108645     0.676330
 H    -2.969911     2.307312     0.971220
 C    -1.803299     1.772870     2.716724
 H    -0.971826     1.085197     2.953545
 H    -2.671450     1.409917     3.296549
 C    -1.430823     3.176366     3.171766
 H    -0.580711     3.532439     2.562041
 H    -2.263379     3.867623     2.951064
 C    -1.069685     3.255096     4.646054
 H    -0.799695     4.278920     4.946915
 H    -0.213554     2.601024     4.878802
 H    -1.910130     2.932477     5.281692
 C    -4.817142     0.220614    -0.990374
 C    -5.511699     1.258740    -0.369939
 H    -5.083807     2.263027    -0.387235
 C    -5.351617    -1.068517    -0.997045
 H    -4.800181    -1.867483    -1.492276
 C    -6.730170     1.002686     0.252001
 H    -7.264531     1.824211     0.737443
 C    -6.569923    -1.307576    -0.366027
 H    -6.979735    -2.321706    -0.372073
 C    -7.282184    -0.283745     0.269618
 C    -8.611270    -0.548508     0.916103
 H    -8.792783     0.133269     1.759839
 H    -8.679492    -1.580397     1.290351
 H    -9.436859    -0.406421     0.198453
 C    -1.678200    -2.555176    -0.503799
 C    -2.180351    -3.082978     0.687954
 H    -3.131974    -2.711890     1.073224
 C    -0.469886    -3.032825    -1.012171
 H    -0.082815    -2.612909    -1.938048
 C    -1.469491    -4.072799     1.363096
 H    -1.871326    -4.473518     2.297857
 C     0.230661    -4.019699    -0.326154
 H     1.185679    -4.367233    -0.729640
 C    -0.250970    -4.558175     0.873479
 C     0.513423    -5.627613     1.599170
 H     0.368706    -6.613154     1.126061
 H     0.188951    -5.715568     2.646088
 H     1.594732    -5.422146     1.591252
