  96
scf done:    -4178.710869
 C    -0.307918    -0.570193    -2.731147
 H    -0.988315    -1.360604    -3.068323
 H    -0.626911     0.433698    -3.025820
 C     1.061256    -0.857631    -2.542712
 H     1.431742    -1.869515    -2.734511
 H     1.821224    -0.083918    -2.671878
 H     0.306547     0.801450    -0.908993
Co     0.140091    -0.666142    -0.765195
 C    -1.227588     1.658277     1.366356
 C    -2.596484     0.869424    -1.141916
 C    -2.807768    -0.594973     1.291742
 C     1.987373    -1.574556     2.002086
 C     3.545337    -0.958401    -0.222684
 C     2.097698     1.251568     1.108487
 P     1.907895    -0.492217     0.519079
 P    -1.531884     0.252887     0.227927
 C    -0.304682    -2.351083    -0.646138
 O    -0.647692    -3.453580    -0.671305
 H    -0.847206     1.204595     2.292946
 H    -0.473987     2.336421     0.956017
 H    -2.161038     2.195763     1.573465
 C    -3.379867    -0.069723    -1.836170
 O    -3.324331    -1.329713    -1.363503
 C    -3.965875    -2.367681    -2.041612
 H    -3.694751    -3.291215    -1.514729
 H    -5.064309    -2.252213    -2.026403
 H    -3.626625    -2.440901    -3.089886
 C    -2.534035     2.174262    -1.651256
 O    -1.687181     3.023170    -1.026650
 C    -1.550934     4.333676    -1.484666
 H    -0.802149     4.810239    -0.837912
 H    -2.497603     4.899053    -1.413669
 H    -1.195714     4.371483    -2.530218
 C    -3.301787     2.556366    -2.760742
 H    -3.261564     3.576517    -3.141084
 C    -4.152432     0.298247    -2.943278
 H    -4.768865    -0.435589    -3.461570
 C    -4.111556     1.615695    -3.388129
 H    -4.710951     1.912174    -4.252125
 C    -4.102558    -0.053314     1.424423
 O    -4.295953     1.178937     0.910374
 C    -5.586806     1.612000     0.592148
 H    -5.468656     2.525640    -0.005517
 H    -6.126695     0.862198    -0.010884
 H    -6.181225     1.847234     1.492871
 C    -2.547036    -1.807762     1.955726
 O    -1.272658    -2.246176     1.954040
 C    -0.992781    -3.540442     2.409163
 H     0.074872    -3.708934     2.227103
 H    -1.570254    -4.297296     1.853021
 H    -1.193296    -3.646563     3.489788
 C    -3.570721    -2.516230     2.602958
 H    -3.365379    -3.468665     3.088990
 C    -5.132016    -0.752521     2.065198
 H    -6.132749    -0.326905     2.135677
 C    -4.855064    -1.988574     2.635478
 H    -5.651653    -2.542511     3.138266
 H     2.075253    -2.590287     1.591806
 H     2.851435    -1.350118     2.639144
 H     1.056626    -1.484600     2.571202
 C     4.711925    -0.168928    -0.216414
 O     4.716559     0.913021     0.582538
 C     5.654258     1.927920     0.384678
 H     5.337458     2.768130     1.017134
 H     6.672145     1.619725     0.683796
 H     5.675949     2.260320    -0.667934
 C     3.616446    -2.200423    -0.889379
 O     2.557721    -3.020345    -0.730861
 C     2.483042    -4.215220    -1.456287
 H     1.507148    -4.656159    -1.220366
 H     3.284536    -4.918025    -1.168545
 H     2.538487    -4.033538    -2.543686
 C     4.735607    -2.566588    -1.646361
 H     4.762398    -3.516920    -2.177421
 C     5.832557    -0.520103    -0.982238
 H     6.715981     0.117572    -0.991261
 C     5.826104    -1.707144    -1.702146
 H     6.700582    -1.983413    -2.296196
 C     2.300547     2.237933     0.122946
 O     2.599108     1.787116    -1.110847
 C     2.327158     2.599973    -2.218260
 H     2.464031     1.972780    -3.108212
 H     1.286041     2.963275    -2.193877
 H     3.017484     3.459491    -2.282771
 C     1.851168     1.696441     2.418748
 O     1.602734     0.755488     3.356187
 C     1.288074     1.138301     4.662424
 H     1.112208     0.210980     5.223116
 H     0.373861     1.756534     4.701791
 H     2.114382     1.692364     5.141734
 C     1.810684     3.064087     2.728578
 H     1.614661     3.394309     3.747395
 C     2.226743     3.603328     0.413606
 H     2.378223     4.344915    -0.370272
 C     1.986868     4.004719     1.723290
 H     1.937941     5.069105     1.965206
