  82
scf done:    -3498.840635
 C     0.830884    -2.418218    -1.573110
 H     1.558215    -2.108882    -2.330774
 H     1.211062    -3.184182    -0.891555
 C    -0.546923    -2.329442    -1.841867
 H    -0.874838    -1.956583    -2.818372
 H    -1.251256    -3.028979    -1.384327
 H    -0.073492    -1.829727     0.577992
Co     0.031740    -0.859639    -0.553243
 C     1.799373    -0.773275     2.331921
 C     3.315586    -1.205196    -0.122198
 C     2.305540     1.476755     0.641794
 C    -1.607806     0.241181     2.202224
 C    -2.472681     1.387006    -0.344656
 C    -3.215322    -1.352475     0.516162
 P    -1.802997    -0.154423     0.399255
 P     1.844649    -0.318616     0.533754
 C     0.100719     0.350008    -1.819259
 O     0.102821     1.141046    -2.653012
 H     1.552005    -1.846534     2.356029
 C     2.954946    -0.429784     3.253836
 H     3.164084     0.649974     3.248462
 H     3.881542    -0.957117     2.985068
 H     0.888167    -0.267648     2.678634
 H     2.705393    -0.712104     4.288738
 C     3.776303    -2.340142     0.558920
 H     3.300987    -2.643162     1.492832
 C     3.912563    -0.859321    -1.355655
 C     3.422715     0.269696    -2.212898
 H     3.150929     1.163854    -1.636336
 H     2.520316    -0.031527    -2.766793
 H     4.182481     0.555374    -2.953522
 C     4.832737    -3.105768     0.074023
 H     5.170596    -3.982261     0.631775
 C     4.983906    -1.633189    -1.816886
 H     5.457010    -1.354866    -2.762799
 C     5.451015    -2.742203    -1.117867
 H     6.288018    -3.324515    -1.510118
 C     1.206581     2.337021     0.504991
 H     0.236187     1.898356     0.269186
 C     3.581308     2.035350     0.896219
 C     4.860233     1.251096     0.978743
 H     4.734086     0.258413     1.419948
 H     5.608256     1.802662     1.565847
 H     5.281954     1.089628    -0.026528
 C     1.321053     3.716263     0.633595
 H     0.438106     4.347543     0.509892
 C     3.674328     3.429344     1.022638
 H     4.657189     3.866253     1.220648
 C     2.570338     4.267052     0.899482
 H     2.692077     5.348094     1.002611
 H    -0.821401     1.010266     2.275276
 C    -2.823709     0.604862     3.036353
 H    -3.590792    -0.181399     2.984277
 H    -3.286141     1.550552     2.719194
 H    -1.155995    -0.685268     2.589360
 H    -2.535906     0.718832     4.093160
 C    -2.319152     2.610984     0.321674
 H    -1.900437     2.636552     1.328795
 C    -2.993661     1.380198    -1.657953
 C    -3.181450     0.110342    -2.432865
 H    -4.136882    -0.378421    -2.180582
 H    -2.389529    -0.616513    -2.206276
 H    -3.179530     0.306898    -3.513862
 C    -2.686758     3.813986    -0.274784
 H    -2.559750     4.752710     0.269896
 C    -3.357757     2.599938    -2.238169
 H    -3.757659     2.595029    -3.255893
 C    -3.214265     3.808188    -1.562746
 H    -3.505014     4.743576    -2.046497
 C    -2.804356    -2.685716     0.662331
 H    -1.731525    -2.891529     0.649092
 C    -4.599532    -1.055087     0.560045
 C    -5.198222     0.322623     0.481342
 H    -5.239468     0.698016    -0.552161
 H    -4.633813     1.065226     1.054663
 H    -6.227411     0.303004     0.866073
 C    -3.711229    -3.727295     0.822432
 H    -3.351244    -4.752428     0.935938
 C    -5.495311    -2.126348     0.700884
 H    -6.565641    -1.903691     0.727752
 C    -5.073134    -3.445139     0.825488
 H    -5.808433    -4.245782     0.936678
