  88
scf done:    -3577.412491
 C     1.625715     1.128891     2.973860
 H     1.984324     0.446623     3.752968
 H     2.413847     1.754274     2.543134
 C     0.298598     1.609642     3.055712
 H    -0.337414     1.284824     3.885929
 H     0.049125     2.608524     2.684742
 H     0.813377     1.456581     0.768562
Co     0.453664     0.272584     1.566060
 C     2.387723     0.424485    -1.232427
 C     3.247030    -1.563781     0.621547
 C     0.901504    -2.000299    -0.868890
 C    -2.361477    -0.946665     0.064990
 C    -2.671573     1.595023     1.275144
 C    -1.149754     1.389976    -1.153193
 P    -1.379319     0.564973     0.471467
 P     1.728317    -0.668151     0.095354
 C    -0.006935    -1.140549     2.495465
 O    -0.335209    -2.061680     3.104298
 H     2.921695    -0.189098    -1.977035
 H     1.510068     0.868863    -1.729922
 C     3.285247     1.528178    -0.697638
 H     2.743685     2.066764     0.098473
 H     4.176252     1.086040    -0.218299
 C     3.712485     2.511487    -1.777556
 H     2.809904     2.928013    -2.261137
 H     4.257980     1.973659    -2.574676
 C     4.576139     3.649528    -1.252824
 H     4.027953     4.175878    -0.451400
 H     5.475626     3.228675    -0.769703
 C     4.988048     4.640966    -2.328892
 H     5.608652     5.452782    -1.920050
 H     4.107259     5.102841    -2.804048
 H     5.568200     4.147985    -3.125724
 C     3.676304    -1.483423     1.947277
 C     3.991447    -2.320018    -0.294460
 C     5.577431    -2.883148     1.437580
 C     5.150935    -2.973628     0.110842
 C     4.838137    -2.140398     2.354489
 H     3.083709    -0.899354     2.652481
 H     5.163949    -2.071548     3.395213
 H     6.486695    -3.399300     1.755518
 H     5.723462    -3.563141    -0.609558
 H     3.651927    -2.411623    -1.330127
 C     0.562985    -1.873308    -2.220171
 C     0.507437    -3.159583    -0.182903
 C    -0.577299    -4.006213    -2.168456
 C    -0.222010    -4.153462    -0.825620
 C    -0.177121    -2.867974    -2.863269
 H     0.858363    -0.986554    -2.782029
 H    -0.440289    -2.748097    -3.917402
 H    -1.159474    -4.781967    -2.671359
 H    -0.523506    -5.046675    -0.273357
 H     0.766128    -3.278897     0.872202
 H    -1.744703    -1.531162    -0.637646
 H    -2.366129    -1.539230     0.994734
 C    -3.779917    -0.763072    -0.453229
 H    -4.406548    -0.328640     0.343234
 H    -3.799942    -0.025621    -1.273954
 C    -4.392217    -2.070956    -0.935860
 H    -4.363438    -2.811749    -0.116017
 H    -3.759670    -2.495779    -1.737416
 C    -5.821153    -1.925943    -1.439371
 H    -6.447130    -1.504907    -0.632903
 H    -5.843029    -1.178519    -2.252446
 C    -6.424745    -3.232571    -1.928319
 H    -7.456568    -3.096696    -2.286397
 H    -6.448085    -3.986600    -1.125039
 H    -5.837722    -3.657538    -2.758685
 C    -2.988630     1.298670     2.607311
 C    -3.391699     2.595518     0.614294
 C    -4.717947     2.983879     2.598324
 C    -4.404416     3.289914     1.275903
 C    -4.010224     1.981031     3.261614
 H    -2.423362     0.525892     3.133915
 H    -4.248481     1.735597     4.299399
 H    -5.512744     3.527851     3.114354
 H    -4.955632     4.072841     0.749122
 H    -3.165153     2.833781    -0.427128
 C    -0.578892     2.672566    -1.165582
 C    -1.414824     0.765416    -2.375650
 C    -0.537523     2.670507    -3.580473
 C    -1.103243     1.398818    -3.580811
 C    -0.283795     3.310869    -2.365309
 H    -0.347004     3.164915    -0.217656
 H     0.159444     4.309557    -2.353143
 H    -0.293226     3.164657    -4.523734
 H    -1.306736     0.889004    -4.525805
 H    -1.848465    -0.234629    -2.401205
