  86
scf done:    -3799.516104
 C    -0.454304    -3.247042    -1.355206
 H    -1.141419    -3.950632    -0.871384
 H    -0.720716    -3.023512    -2.392644
 C     0.900528    -3.241618    -0.948031
 H     1.218615    -3.932286    -0.159548
 H     1.694153    -3.005387    -1.663400
 H     0.386438    -1.032324    -1.592289
Co    -0.022000    -1.587384    -0.286186
 C    -1.655928     0.758889    -2.151590
 C    -3.384080    -0.813391    -0.518817
 C    -1.765591     1.131969     0.686856
 C     1.554556     0.380010     2.026698
 C     3.287649    -1.017055     0.263243
 C     1.793032     1.203491    -0.739610
 P     1.602515    -0.293792     0.300640
 P    -1.656260    -0.198437    -0.575142
 C    -0.460590    -2.204847     1.291955
 O    -0.724393    -2.603455     2.340814
 H    -0.704902     1.314975    -2.176829
 C    -1.775147    -0.136098    -3.372409
 H    -2.714675    -0.710117    -3.359969
 H    -0.941677    -0.853069    -3.407737
 H    -2.476504     1.494281    -2.119029
 H    -1.753866     0.460767    -4.296808
 C    -4.475399     0.072341    -0.522233
 H    -4.300753     1.152056    -0.527123
 C    -3.644034    -2.180947    -0.476567
 H    -2.799586    -2.871035    -0.464801
 C    -5.776084    -0.399803    -0.496569
 H    -6.630796     0.279420    -0.494629
 C    -4.949896    -2.674014    -0.447577
 H    -5.111665    -3.751559    -0.412392
 C    -6.025566    -1.781677    -0.460718
 O    -7.321225    -2.148920    -0.435213
 C    -7.634488    -3.512655    -0.391304
 H    -7.233314    -3.997342     0.516283
 H    -8.729466    -3.584130    -0.377039
 H    -7.253203    -4.050506    -1.277293
 C    -2.061260     0.764264     2.012578
 H    -2.272692    -0.281600     2.249825
 C    -1.505009     2.476345     0.426660
 H    -1.268077     2.807119    -0.585272
 C    -2.083615     1.700577     3.030592
 H    -2.312316     1.416748     4.059490
 C    -1.515461     3.434035     1.446042
 H    -1.299714     4.473860     1.198149
 C    -1.801785     3.049315     2.757876
 O    -1.834233     3.889349     3.811348
 C    -1.553572     5.243401     3.600973
 H    -2.276246     5.711175     2.908865
 H    -1.628485     5.737336     4.578048
 H    -0.534248     5.394829     3.202456
 H     1.264186    -0.481370     2.649413
 C     2.819825     1.023238     2.569642
 H     3.177674     1.846650     1.933583
 H     3.637630     0.291248     2.638568
 H     0.687976     1.060610     2.064871
 H     2.643973     1.430111     3.577978
 C     4.414509    -0.352008    -0.241399
 H     4.306754     0.637334    -0.691411
 C     3.471385    -2.275185     0.842049
 H     2.605313    -2.814013     1.232977
 C     5.673774    -0.930741    -0.177219
 H     6.553614    -0.421141    -0.574798
 C     4.731822    -2.862879     0.928079
 H     4.830772    -3.846173     1.388455
 C     5.845473    -2.191691     0.409128
 O     7.102887    -2.676228     0.427696
 C     7.332551    -3.934644     0.995585
 H     6.778179    -4.731226     0.468450
 H     8.408304    -4.130815     0.902576
 H     7.057096    -3.960408     2.064889
 C     2.039400     1.036798    -2.115195
 H     2.154658     0.027966    -2.520002
 C     1.627022     2.503102    -0.264313
 H     1.417150     2.681753     0.790469
 C     2.121266     2.121687    -2.970064
 H     2.313083     1.992482    -4.036844
 C     1.692694     3.609945    -1.115897
 H     1.546608     4.607153    -0.699812
 C     1.942127     3.424876    -2.477797
 O     2.025572     4.419801    -3.381668
 C     1.846323     5.738861    -2.950161
 H     2.605911     6.034503    -2.204894
 H     1.951351     6.377907    -3.835988
 H     0.843419     5.895698    -2.514340
