  60
scf done:    -2811.051633
 C     1.619153     2.023934    -1.867059
 H     1.655393     3.102370    -1.675488
 H     2.606866     1.553505    -1.918334
 C     0.549866     1.485216    -2.623853
 H    -0.224571     2.154592    -3.014783
 H     0.725439     0.604745    -3.250234
 H     1.131322    -0.195542    -0.985129
Co     0.338296     1.030710    -0.679522
 C     2.618204    -0.349066     1.486081
 C     2.495054     2.507893     1.440665
 C     0.465574     1.016854     2.722632
 C    -2.817730    -0.100650    -0.093334
 C    -1.431646    -1.284335    -2.320562
 C    -0.723522    -2.020882     0.322278
 P    -1.116196    -0.529154    -0.679292
 P     1.440086     1.031700     1.161802
 C    -0.717703     2.353691    -0.255573
 O    -1.439525     3.195806     0.058390
 H     3.061537    -0.206054     2.487741
 H     2.005919    -1.265717     1.534308
 C     3.701126    -0.506188     0.430205
 H     3.219591    -0.554547    -0.561597
 H     4.341566     0.393193     0.414182
 C     4.572079    -1.736850     0.639510
 H     3.931394    -2.637983     0.646198
 H     5.038820    -1.696095     1.640938
 C     5.656383    -1.897943    -0.416829
 H     5.184114    -1.931090    -1.414516
 H     6.293629    -0.995834    -0.420367
 C     6.519108    -3.133176    -0.215720
 H     7.292252    -3.220995    -0.994029
 H     5.912779    -4.052986    -0.244479
 H     7.030961    -3.108992     0.759967
 H     3.205193     2.609878     0.608454
 H     1.854288     3.401997     1.442461
 H     3.046723     2.452248     2.392553
 H     1.103936     1.068913     3.618747
 H    -0.223076     1.874945     2.717914
 H    -0.140105     0.099831     2.768735
 H    -2.680177     0.316822     0.919763
 H    -3.133154     0.755086    -0.715182
 C    -3.892374    -1.176889    -0.084151
 H    -4.024998    -1.586776    -1.100309
 H    -3.573467    -2.025786     0.545161
 C    -5.235916    -0.666746     0.421897
 H    -5.562910     0.182358    -0.205335
 H    -5.108670    -0.252354     1.438647
 C    -6.325030    -1.730234     0.442059
 H    -6.447106    -2.141911    -0.575644
 H    -5.991485    -2.577604     1.067367
 C    -7.662460    -1.215705     0.949406
 H    -8.428308    -2.006051     0.952163
 H    -8.037276    -0.391412     0.321529
 H    -7.577917    -0.830758     1.978464
 H    -1.830798    -0.514003    -2.995902
 H    -0.471462    -1.626960    -2.731440
 H    -2.131024    -2.132516    -2.273222
 H     0.259071    -2.399201     0.006639
 H    -0.659934    -1.747707     1.385986
 H    -1.471479    -2.818984     0.204478
