  84
scf done:    -3125.276440
 C     2.346007    -1.513126     2.299704
 H     2.536568    -2.590990     2.342510
 H     3.236145    -0.922453     2.060551
 C     1.351388    -0.961509     3.140356
 H     0.799081    -1.627957     3.810348
 H     1.481464     0.045723     3.548559
 H     1.410223     0.339498     1.159750
Co     0.734758    -0.970695     1.218050
 C     1.693337     0.700152    -1.604163
 C     3.368899    -1.524371    -0.848827
 C     0.885450    -2.015120    -2.229952
 C    -1.977209     0.004015    -0.448826
 C    -2.412445    -0.042300     2.422830
 C    -0.672133     2.104272     1.124508
 P    -1.067673     0.274266     1.149072
 P     1.576304    -0.971501    -0.804421
 C    -0.104115    -2.500170     1.361955
 O    -0.671996    -3.485382     1.550006
 H     2.053559     0.587211    -2.639094
 H     0.656842     1.068674    -1.682625
 C     2.538977     1.726798    -0.864485
 H     2.303487     1.681582     0.212766
 H     3.607944     1.464149    -0.941165
 C     2.327315     3.146921    -1.370560
 H     1.250692     3.394250    -1.310692
 H     2.585111     3.205745    -2.443883
 C     3.120708     4.189932    -0.596550
 H     2.859124     4.114940     0.474028
 H     4.196157     3.946238    -0.656900
 C     2.887489     5.610789    -1.083277
 H     3.471767     6.341353    -0.503603
 H     1.825201     5.892021    -0.997980
 H     3.171499     5.722821    -2.142135
 H     3.811398    -0.962610    -0.009960
 C     3.479069    -3.011838    -0.530263
 H     4.524136    -3.281350    -0.309572
 H     2.865246    -3.283156     0.338942
 H     3.158564    -3.628626    -1.385033
 C     4.136085    -1.182776    -2.120315
 H     4.188048    -0.101938    -2.311661
 H     5.172336    -1.550008    -2.040342
 H     3.697373    -1.661757    -3.010687
 H     1.785862    -2.344900    -2.775789
 C     0.172970    -3.257023    -1.711404
 H    -0.057515    -3.939302    -2.545967
 H     0.769105    -3.813257    -0.975873
 H    -0.778858    -2.996834    -1.224495
 C     0.004992    -1.277594    -3.233906
 H     0.522996    -0.444605    -3.727936
 H    -0.312591    -1.977560    -4.023887
 H    -0.909462    -0.882432    -2.770210
 H    -1.373201     0.535146    -1.203894
 H    -1.814155    -1.065267    -0.656027
 C    -3.452779     0.320469    -0.649247
 H    -4.058610    -0.239634     0.082537
 H    -3.658467     1.386343    -0.463740
 C    -3.923886    -0.037851    -2.053481
 H    -3.711403    -1.105039    -2.248141
 H    -3.324841     0.523269    -2.794368
 C    -5.402647     0.234953    -2.290268
 H    -5.996298    -0.325979    -1.546813
 H    -5.609629     1.301723    -2.092325
 C    -5.865885    -0.125181    -3.692516
 H    -6.937435     0.082315    -3.833170
 H    -5.703576    -1.194354    -3.904044
 H    -5.313342     0.447087    -4.455132
 H    -2.924444    -0.918147     1.981536
 C    -1.853606    -0.482693     3.770517
 H    -2.682984    -0.684898     4.467731
 H    -1.251263    -1.392874     3.680681
 H    -1.217052     0.292296     4.223194
 C    -3.443471     1.065842     2.618248
 H    -3.903841     1.405066     1.683055
 H    -4.252866     0.704025     3.273316
 H    -2.997613     1.940745     3.114317
 H     0.178020     2.087252     0.423330
 C    -1.695672     3.080391     0.558313
 H    -1.237639     4.081008     0.484753
 H    -2.019355     2.800866    -0.454489
 H    -2.589450     3.179257     1.188707
 C    -0.118589     2.558443     2.469958
 H     0.656136     1.865475     2.826910
 H     0.332644     3.559768     2.378452
 H    -0.904284     2.621886     3.238397
