 100
scf done:    -3734.556143
 C     1.358268    -1.506271    -3.040939
 H     1.827369    -0.919781    -3.839269
 H     2.020939    -2.259590    -2.603463
 C    -0.037185    -1.731746    -3.098629
 H    -0.613138    -1.312001    -3.930237
 H    -0.462778    -2.659515    -2.703735
 H     0.531732    -1.631096    -0.824895
Co     0.386357    -0.417478    -1.643161
 C     2.241743    -0.852596     1.183751
 C     3.491655     0.847061    -0.736644
 C     1.272099     1.796115     0.718949
 C    -2.100540     1.337368    -0.100602
 C    -2.943028    -1.084726    -1.308381
 C    -1.364268    -1.201157     1.088526
 P    -1.458819    -0.340170    -0.528193
 P     1.824986     0.297594    -0.193696
 C     0.191044     1.036333    -2.602540
 O     0.036926     1.987060    -3.234959
 H     2.898183    -0.331628     1.900707
 H     1.291744    -1.071876     1.697741
 C     2.875559    -2.152261     0.717818
 H     2.228338    -2.601867    -0.054511
 H     3.842874    -1.945316     0.227248
 C     3.070113    -3.141478     1.857947
 H     2.097683    -3.301117     2.358872
 H     3.733776    -2.699748     2.623956
 C     3.632383    -4.483897     1.413943
 H     2.969499    -4.912185     0.641332
 H     4.604908    -4.324589     0.915600
 C     3.795916    -5.474317     2.555460
 H     4.198495    -6.437692     2.207267
 H     2.830770    -5.676371     3.048571
 H     4.481551    -5.086472     3.326245
 C     3.911305     0.619831    -2.046483
 H     3.223896     0.131357    -2.738242
 C     4.369591     1.487821     0.149610
 H     4.051695     1.699131     1.174705
 C     5.183685     1.013469    -2.461943
 H     5.493754     0.826769    -3.493896
 C     5.635199     1.876868    -0.268609
 H     6.305178     2.378363     0.436055
 C     6.067057     1.645025    -1.583785
 C     7.435572     2.075912    -2.023415
 H     7.557907     3.166886    -1.929454
 H     8.218012     1.609920    -1.403546
 H     7.627237     1.804282    -3.070741
 C     0.908822     1.789554     2.068208
 H     1.047860     0.893382     2.673836
 C     1.086473     2.982353    -0.008068
 H     1.373246     3.022213    -1.061847
 C     0.333205     2.916889     2.657923
 H     0.045151     2.880288     3.712689
 C     0.521826     4.103003     0.585249
 H     0.380296     5.010219    -0.008938
 C     0.112834     4.086689     1.927439
 C    -0.560462     5.278601     2.540962
 H    -0.062524     6.216452     2.252290
 H    -1.608452     5.351626     2.204327
 H    -0.568942     5.218260     3.638477
 H    -1.354505     1.780828     0.578175
 H    -2.014559     1.920077    -1.032516
 C    -3.504998     1.452842     0.472009
 H    -4.242967     1.196601    -0.306257
 H    -3.658337     0.711702     1.275149
 C    -3.781166     2.848442     1.015326
 H    -3.606685     3.591979     0.216036
 H    -3.037705     3.081962     1.800302
 C    -5.183069     3.028027     1.578648
 H    -5.922404     2.802975     0.789902
 H    -5.353792     2.275672     2.369147
 C    -5.432068     4.421005     2.134219
 H    -6.450186     4.524633     2.539263
 H    -5.304630     5.189841     1.354946
 H    -4.725542     4.658391     2.946473
 C    -3.209799    -0.755017    -2.643573
 H    -2.503743    -0.127259    -3.192858
 C    -3.855276    -1.896150    -0.628639
 H    -3.678045    -2.159545     0.416570
 C    -4.359049    -1.217129    -3.273812
 H    -4.548937    -0.940511    -4.314901
 C    -4.998098    -2.369759    -1.271247
 H    -5.697331    -3.005645    -0.720689
 C    -5.272119    -2.041210    -2.602069
 C    -6.488208    -2.572185    -3.302621
 H    -7.243233    -2.928516    -2.587553
 H    -6.953204    -1.804481    -3.939220
 H    -6.226386    -3.420148    -3.957326
 C    -1.439288    -0.546390     2.319130
 H    -1.667532     0.518973     2.364973
 C    -1.061241    -2.572606     1.088617
 H    -0.983120    -3.104604     0.136947
 C    -1.188452    -1.232498     3.509990
 H    -1.236079    -0.690651     4.458868
 C    -0.830935    -3.254105     2.274929
 H    -0.593640    -4.321452     2.243568
 C    -0.872839    -2.592135     3.512158
 C    -0.568302    -3.329355     4.782433
 H    -1.200684    -4.224735     4.887304
 H     0.479540    -3.671805     4.796106
 H    -0.725861    -2.695838     5.666339
