  82
scf done:    -3347.515651
 C    -0.186064    -1.896905    -2.999203
 H    -0.525088    -1.449964    -3.939484
 H     0.827102    -2.303485    -3.047437
 C    -1.125566    -2.473755    -2.118392
 H    -2.193597    -2.457700    -2.355740
 H    -0.829771    -3.320299    -1.491015
 H     0.569790    -1.435867    -0.678731
Co    -0.493565    -0.693757    -1.395318
 C     1.263989     2.132224    -2.345716
 O     1.397193     1.166591     0.204351
 O     2.650379     0.072000    -1.743546
 C    -1.667435     0.765078     1.476265
 O    -3.010584    -1.299901     0.289715
 O    -0.914454    -1.672794     1.721564
 P    -1.470904    -0.751189     0.474738
 P     1.141221     0.605478    -1.334927
 C    -1.715323     0.266780    -2.198017
 O    -2.539570     0.860241    -2.736976
 H     1.272274     1.774834    -3.388645
 C     0.158558     3.151223    -2.127324
 H     0.097558     3.465027    -1.074879
 H    -0.825790     2.757036    -2.414224
 H     2.261703     2.564777    -2.163655
 H     0.338256     4.053036    -2.731869
 C     2.553677     1.883099     0.609260
 H     2.903626     1.402565     1.539157
 H     3.356840     1.765316    -0.136115
 C     2.269415     3.349226     0.871723
 H     3.201312     3.804491     1.251946
 H     2.050188     3.862896    -0.079528
 C     1.134633     3.590007     1.855902
 H     1.367247     3.081875     2.808779
 H     0.225972     3.100781     1.470922
 C     0.859168     5.063218     2.105538
 H     1.743575     5.575994     2.517056
 H     0.585927     5.580116     1.171221
 H     0.031398     5.205816     2.816592
 C     3.058946    -1.276760    -1.862819
 H     2.375148    -1.934914    -1.298360
 H     2.993880    -1.566306    -2.925140
 C     4.483327    -1.430217    -1.371416
 H     4.847868    -2.421928    -1.692435
 H     5.112743    -0.687506    -1.892217
 C     4.643501    -1.288003     0.134669
 H     4.059540    -2.079404     0.633441
 H     4.188729    -0.337825     0.455057
 C     6.088584    -1.346634     0.599559
 H     6.564827    -2.298722     0.314285
 H     6.686025    -0.535393     0.153020
 H     6.164388    -1.252245     1.693675
 H    -0.638781     1.020664     1.775032
 C    -2.313900     1.918533     0.730728
 H    -3.304225     1.651030     0.332562
 H    -1.691398     2.228544    -0.119906
 H    -2.215918     0.498236     2.394349
 H    -2.439056     2.792022     1.388400
 C    -3.886174    -1.595518     1.365847
 H    -4.328644    -2.581207     1.142467
 H    -3.319252    -1.701807     2.306033
 C    -4.983117    -0.556381     1.499040
 H    -5.669259    -0.887275     2.299089
 H    -4.549041     0.396158     1.848449
 C    -5.756473    -0.319401     0.209535
 H    -6.230456    -1.265442    -0.107068
 H    -5.040256    -0.064574    -0.588819
 C    -6.807373     0.770751     0.335441
 H    -7.550108     0.529385     1.113289
 H    -6.348694     1.735180     0.608575
 H    -7.351414     0.919980    -0.609386
 C     0.018093    -2.728083     1.581316
 H    -0.323263    -3.540906     2.244261
 H     0.013804    -3.108006     0.546922
 C     1.408407    -2.264062     1.963305
 H     2.110792    -3.101993     1.805077
 H     1.703890    -1.466240     1.261343
 C     1.520161    -1.747353     3.389611
 H     1.262604    -2.557210     4.095456
 H     0.758269    -0.964402     3.536990
 C     2.899286    -1.197592     3.715032
 H     3.680882    -1.964130     3.586045
 H     3.156525    -0.357495     3.049922
 H     2.959190    -0.832362     4.751498
