  72
scf done:    -2968.163124
 C    -0.005196    -0.609525    -2.889787
 H    -0.475747    -1.556623    -3.179253
 H    -0.463625     0.264697    -3.363901
 C     1.379718    -0.582893    -2.598324
 H     1.956763    -1.509789    -2.672237
 H     1.964895     0.311230    -2.833871
 H     0.338725     1.060040    -1.137527
Co     0.285911    -0.404246    -0.908288
 C    -2.330535     1.600141    -1.564337
 C    -3.042966    -1.112566    -0.718513
 C    -2.142329     0.784685     1.245622
 C     1.122497     0.052516     2.410488
 C     3.306482    -0.773508     0.767151
 C     2.270594     1.918091     0.575054
 P     1.706636     0.158971     0.629124
 P    -1.752844     0.189337    -0.466061
 C     0.317286    -2.113545    -0.550844
 O     0.420327    -3.244148    -0.346986
 H    -1.788363     1.389491    -2.498624
 C    -3.816202     1.660161    -1.900501
 H    -4.006449     2.512343    -2.573521
 H    -4.161336     0.755143    -2.419938
 H    -4.449122     1.800983    -1.011854
 C    -1.813682     2.935201    -1.038471
 H    -0.739233     2.881991    -0.804999
 H    -1.950713     3.720914    -1.798344
 H    -2.351528     3.259044    -0.133561
 H    -4.046840    -0.658899    -0.714992
 H    -2.873247    -1.503758    -1.736123
 C    -2.995355    -2.251256     0.293078
 H    -3.204517    -1.857517     1.302602
 H    -1.980377    -2.673405     0.336819
 C    -3.987524    -3.358382    -0.029655
 H    -5.021297    -2.977464    -0.055382
 H    -3.775277    -3.805011    -1.013976
 H    -3.946642    -4.165413     0.717565
 H    -1.790644    -0.017123     1.914385
 H    -1.463935     1.634209     1.430665
 C    -3.571077     1.162442     1.615076
 H    -4.258269     0.341718     1.349751
 H    -3.896594     2.031220     1.021647
 C    -3.714029     1.481771     3.096164
 H    -3.434005     0.616240     3.718088
 H    -3.061076     2.320112     3.387804
 H    -4.747653     1.758308     3.354562
 H     0.314129     0.801979     2.446680
 C     0.510690    -1.313276     2.697853
 H     0.081281    -1.337748     3.712340
 H    -0.283988    -1.560192     1.981336
 H     1.262475    -2.117027     2.641812
 C     2.159893     0.417031     3.467237
 H     2.594401     1.415076     3.313512
 H     1.694544     0.415541     4.466407
 H     2.984423    -0.311743     3.495589
 H     4.021067    -0.136864     1.317148
 H     3.104312    -1.641869     1.418178
 C     3.928546    -1.266264    -0.530841
 H     4.038899    -0.431281    -1.241133
 H     3.233871    -1.969567    -1.012399
 C     5.274776    -1.936847    -0.306790
 H     6.003716    -1.240056     0.138316
 H     5.183104    -2.796677     0.376622
 H     5.701856    -2.307311    -1.251160
 H     1.373003     2.517734     0.809705
 H     2.994712     2.091822     1.388252
 C     2.856136     2.376855    -0.752140
 H     2.140834     2.131227    -1.553275
 H     3.771551     1.802085    -0.972393
 C     3.170681     3.864511    -0.769132
 H     2.261393     4.463411    -0.597838
 H     3.895461     4.135063     0.015839
 H     3.595538     4.174846    -1.735901
