  70
scf done:    -5552.214931
 C     0.023548    -1.082221     4.045725
 H     0.242353    -2.084052     4.427020
 H     0.791360    -0.337796     4.271121
 C    -1.300604    -0.688627     3.808713
 H    -2.122831    -1.380688     4.016132
 H    -1.582804     0.366757     3.837637
 H     0.057082     0.304821     2.052118
Co    -0.374236    -1.108803     2.044687
 O     2.745116    -1.627204     2.373071
 O     1.905630    -2.548821     0.239809
 O     2.093479    -0.004576     0.488882
 O    -2.647032    -1.177611    -0.160612
 O    -2.700399     0.860950     1.420628
 O    -1.123951     0.704546    -0.565894
 P    -1.668201    -0.233504     0.702938
 P     1.555956    -1.322005     1.330390
 C    -0.965246    -2.770462     1.957288
 O    -1.377737    -3.836855     1.925653
 C     4.047485    -2.116594     2.091962
 H     4.028992    -2.840098     1.264992
 H     4.726916    -1.289103     1.840243
 H     4.404556    -2.613551     3.004073
 C     0.997632    -2.851144    -0.737509
 C     0.477576    -4.143373    -0.790925
 H     0.805216    -4.876950    -0.052796
 C     0.583953    -1.889249    -1.660795
 H     0.988418    -0.878819    -1.606083
 C    -0.470768    -4.472635    -1.753465
 H    -0.899461    -5.475019    -1.791888
 C    -0.363930    -2.214624    -2.624587
 H    -0.705364    -1.465756    -3.340708
 C    -0.894097    -3.501748    -2.659977
Cl    -2.119334    -3.888201    -3.825664
 C     3.348737     0.280015     0.030982
 C     3.941197    -0.453665    -0.998164
 H     3.426646    -1.318046    -1.418140
 C     4.001770     1.387640     0.571369
 H     3.507062     1.954512     1.360916
 C     5.193594    -0.079489    -1.478492
 H     5.669794    -0.644301    -2.281484
 C     5.247464     1.769224     0.087146
 H     5.755836     2.645318     0.491718
 C     5.840662     1.029990    -0.936457
Cl     7.392966     1.499635    -1.545530
 C    -3.318240    -0.909204    -1.383326
 H    -2.817425    -0.109088    -1.944197
 H    -3.300923    -1.834582    -1.974745
 H    -4.359549    -0.617889    -1.184212
 C    -3.825084     1.351765     0.814546
 C    -5.059559     0.783419     1.130048
 H    -5.092498    -0.044054     1.840851
 C    -3.748644     2.413846    -0.087060
 H    -2.780305     2.860488    -0.317415
 C    -6.220429     1.263667     0.532933
 H    -7.191696     0.826111     0.768957
 C    -4.908397     2.896665    -0.686826
 H    -4.863344     3.725573    -1.394908
 C    -6.138306     2.316567    -0.378858
Cl    -7.580291     2.914007    -1.129822
 C    -0.208157     1.708917    -0.495316
 C     0.627704     1.886460    -1.600048
 H     0.504210     1.235143    -2.466973
 C    -0.090714     2.554162     0.610545
 H    -0.763835     2.441361     1.460946
 C     1.614521     2.863690    -1.584512
 H     2.289082     2.987723    -2.432810
 C     0.900321     3.532825     0.628385
 H     1.011698     4.186697     1.494917
 C     1.758033     3.674200    -0.458993
Cl     3.032888     4.847622    -0.403104
