  94
scf done:    -4028.621691
 C     0.521445    -1.600059    -2.314663
 H    -0.194022    -1.486843    -3.134598
 H     1.557329    -1.699077    -2.652702
 C     0.133116    -2.146251    -1.076804
 H    -0.904962    -2.449995    -0.910507
 H     0.854034    -2.715902    -0.482550
 H     0.322526     0.275575     0.525126
Co     0.387785    -0.133715    -0.915777
 O     2.473668    -1.342703     1.194551
 O     3.484800    -0.896629    -0.991791
 O     2.922577     1.015885     0.649270
 O    -1.552107     1.796729     0.528724
 O    -2.950885     0.537447    -1.006645
 O    -1.973306    -0.705748     0.990978
 P    -1.501299     0.342293    -0.194463
 P     2.265799    -0.333632    -0.051420
 C     0.588703     1.154641    -2.091779
 O     0.671013     1.931284    -2.932806
 C     1.794033    -1.145926     2.445501
 H     1.266467    -0.177094     2.408004
 C     2.854539    -1.088790     3.522949
 H     3.563549    -0.275730     3.311649
 H     3.416388    -2.034590     3.556783
 H     2.396976    -0.916288     4.508515
 C     0.771741    -2.246700     2.623788
 H     0.011277    -2.186417     1.833126
 H     1.259188    -3.233104     2.587234
 H     0.264729    -2.143379     3.594740
 C     4.712857    -1.308516    -0.510622
 C     5.682991    -0.364316    -0.187835
 H     5.446714     0.696608    -0.276257
 C     4.955387    -2.684813    -0.406333
 C     3.878179    -3.671507    -0.732540
 H     4.270997    -4.697133    -0.742750
 H     3.072137    -3.615629     0.016129
 H     3.421237    -3.460172    -1.710829
 C     6.935839    -0.788614     0.249810
 H     7.699058    -0.049665     0.504084
 C     6.223360    -3.081455     0.028227
 H     6.437699    -4.150444     0.112069
 C     7.207543    -2.150283     0.356299
 H     8.188821    -2.491019     0.694204
 C     2.713298     2.276996     0.146324
 C     3.255946     2.635432    -1.085493
 H     3.813140     1.891493    -1.658588
 C     1.975339     3.185821     0.918527
 C     1.385649     2.768801     2.229879
 H     0.498513     2.135847     2.063702
 H     2.105495     2.190096     2.826433
 H     1.068259     3.643286     2.814396
 C     3.057037     3.921011    -1.581637
 H     3.468418     4.195725    -2.555071
 C     1.802425     4.473333     0.401893
 H     1.238695     5.202891     0.990204
 C     2.328178     4.843168    -0.835672
 H     2.169350     5.855152    -1.214557
 C    -2.350881     2.937390     0.170863
 H    -3.396750     2.604916     0.078672
 C    -1.877742     3.517938    -1.146362
 H    -1.996431     2.793057    -1.963133
 H    -0.816543     3.802896    -1.082196
 H    -2.467097     4.412029    -1.399304
 C    -2.225513     3.918829     1.316210
 H    -2.554915     3.470251     2.264323
 H    -1.180830     4.243521     1.429027
 H    -2.846719     4.805336     1.121868
 C    -3.660964    -0.445951    -1.638935
 C    -3.040558    -1.361574    -2.484392
 H    -1.968789    -1.275769    -2.652720
 C    -5.048204    -0.474711    -1.420498
 C    -5.703242     0.554238    -0.553484
 H    -5.278355     0.552794     0.461124
 H    -5.553474     1.565689    -0.963581
 H    -6.783211     0.371431    -0.475580
 C    -3.791501    -2.361551    -3.098879
 H    -3.296283    -3.082363    -3.753249
 C    -5.776400    -1.487268    -2.050529
 H    -6.856309    -1.531813    -1.885173
 C    -5.163508    -2.431585    -2.874250
 H    -5.761454    -3.213602    -3.347155
 C    -3.152381    -0.693067     1.693071
 C    -3.495354     0.395335     2.493877
 H    -2.814560     1.244235     2.541782
 C    -3.959015    -1.840134     1.626151
 C    -3.540170    -3.021847     0.808591
 H    -3.564382    -2.793976    -0.268298
 H    -2.508663    -3.320348     1.049184
 H    -4.204721    -3.877188     0.989072
 C    -4.687714     0.374942     3.214371
 H    -4.958768     1.230564     3.837226
 C    -5.148178    -1.831695     2.361289
 H    -5.793376    -2.713329     2.318947
 C    -5.522062    -0.737905     3.140810
 H    -6.459458    -0.762381     3.700808
