  50
scf done:    -2804.314647
 C    -0.450027    -3.452720    -0.482192
 H    -0.461439    -4.078152     0.417524
 H    -1.366878    -3.525192    -1.076201
 C     0.784092    -3.192966    -1.132341
 H     1.708540    -3.615743    -0.723040
 H     0.803469    -3.067588    -2.219948
 H    -0.620618    -1.243171    -1.409052
Co     0.131014    -1.559837    -0.168703
 O    -1.859196     0.842620    -0.363445
 C    -3.161154    -1.409931     0.475708
 C    -1.525964     0.120457     2.240559
 O     1.661735     1.112946     0.347795
 C     3.113772    -0.495622    -1.321257
 C     0.867906     0.974215    -2.269956
 P     1.411203    -0.022413    -0.840388
 P    -1.559396    -0.529136     0.527305
 C     0.938138    -1.841483     1.361631
 O     1.450052    -2.002249     2.378505
 C    -2.933983     1.739069    -0.115723
 H    -3.522868     1.389418     0.752954
 C    -3.836784     1.753282    -1.334741
 H    -4.234799     0.747979    -1.534489
 H    -3.268933     2.075997    -2.220832
 H    -4.683289     2.442190    -1.192928
 C    -2.358510     3.103234     0.212900
 H    -1.695312     3.043372     1.087523
 H    -1.767111     3.479233    -0.636045
 H    -3.157865     3.828769     0.426720
 H    -3.081200    -2.294644     1.124252
 H    -4.011142    -0.795357     0.809441
 H    -3.333750    -1.756869    -0.552648
 H    -1.405730    -0.726730     2.932071
 H    -0.636028     0.761024     2.327503
 H    -2.425270     0.688019     2.523381
 C     2.477443     2.268139     0.203915
 H     2.935877     2.282778    -0.803247
 C     3.585314     2.200075     1.237476
 H     4.199880     1.300579     1.088004
 H     3.152613     2.150384     2.248318
 H     4.238788     3.083698     1.178469
 C     1.600653     3.496879     0.350993
 H     0.809501     3.500039    -0.412022
 H     1.117508     3.498097     1.340246
 H     2.190518     4.420500     0.249866
 H     3.735635     0.356024    -1.637505
 H     3.589492    -1.003879    -0.470310
 H     3.043353    -1.215626    -2.149715
 H    -0.137730     1.349449    -2.034895
 H     1.549911     1.804930    -2.505818
 H     0.794286     0.307006    -3.141018
