  88
scf done:    -4346.811777
 C     1.833572     0.593991    -3.003466
 H     1.632436     1.457179    -3.645497
 H     2.865173     0.526907    -2.647755
 C     1.055476    -0.568913    -3.121299
 H     0.237952    -0.620866    -3.846520
 H     1.486600    -1.539391    -2.861623
 H     1.574498    -0.316612    -0.763279
Co     0.516980     0.461637    -1.456263
 O     1.210530     1.026791     1.490546
 O     2.905587     2.142285    -0.040602
 O     0.844721     3.235677     0.282021
 O    -2.148848    -0.368569     0.080525
 O    -1.208819    -2.154583    -1.519445
 O    -0.271218    -1.738820     0.819592
 P    -0.747887    -0.899117    -0.534348
 P     1.322837     1.671689    -0.001869
 C    -0.708332     1.462173    -2.243776
 O    -1.497854     2.073873    -2.801089
 C     1.609586     1.707466     2.678845
 H     2.153158     0.963391     3.284421
 H     2.310957     2.519783     2.432668
 C     0.399685     2.233055     3.423354
 H     0.747809     2.702572     4.359767
 H    -0.059605     3.039861     2.828625
 C    -0.639060     1.160532     3.722013
 H    -0.203655     0.409225     4.405663
 H    -0.858974     0.619433     2.787198
 C    -1.922407     1.718075     4.314109
 H    -1.735735     2.238324     5.267155
 H    -2.387613     2.445975     3.629759
 H    -2.659352     0.923711     4.507419
 C     3.961175     1.311432    -0.292003
 C     4.104647     0.067326     0.326382
 H     3.342403    -0.294032     1.018124
 C     4.939951     1.775502    -1.173099
 H     4.800807     2.750693    -1.642501
 C     5.229556    -0.711060     0.057582
 H     5.370622    -1.683184     0.531514
 C     6.064045     1.001567    -1.440007
 H     6.841887     1.344032    -2.124666
 C     6.193899    -0.236789    -0.821029
 F     7.269636    -0.982599    -1.075135
 C    -0.425868     3.674397     0.042394
 C    -0.574012     4.911011    -0.587457
 H     0.322379     5.463256    -0.873943
 C    -1.551588     2.937140     0.416602
 H    -1.441887     1.957178     0.881458
 C    -1.844253     5.415490    -0.844335
 H    -1.985172     6.378946    -1.337195
 C    -2.823774     3.434501     0.147298
 H    -3.717843     2.867589     0.408248
 C    -2.956770     4.666943    -0.476364
 F    -4.176372     5.141777    -0.729735
 C    -2.916901    -0.932175     1.149551
 H    -3.280672    -1.929673     0.858623
 H    -2.269734    -1.052539     2.030781
 C    -4.075394    -0.008024     1.440843
 H    -4.635832    -0.439721     2.288571
 H    -3.684724     0.960563     1.798251
 C    -5.004891     0.205689     0.254349
 H    -5.371086    -0.776119    -0.093795
 H    -4.418549     0.621356    -0.581841
 C    -6.182202     1.112806     0.571222
 H    -6.801243     0.699555     1.383701
 H    -5.848921     2.112752     0.894118
 H    -6.832224     1.252789    -0.305259
 C    -2.225063    -3.026999    -1.227221
 C    -3.487509    -2.797010    -1.774345
 H    -3.634924    -1.925396    -2.413983
 C    -1.999705    -4.132306    -0.405979
 H    -1.005347    -4.302490     0.009376
 C    -4.537977    -3.662885    -1.485043
 H    -5.536749    -3.505299    -1.896023
 C    -3.048399    -5.000991    -0.114430
 H    -2.903180    -5.872419     0.526408
 C    -4.305712    -4.752786    -0.653041
 F    -5.309631    -5.581338    -0.370946
 C     0.968782    -2.267650     1.010398
 C     1.643223    -2.959701     0.001374
 H     1.180786    -3.074621    -0.980395
 C     1.547981    -2.119365     2.271254
 H     1.000604    -1.568224     3.036664
 C     2.907225    -3.488347     0.250904
 H     3.462539    -4.017809    -0.524984
 C     2.806777    -2.654409     2.526092
 H     3.286237    -2.546420     3.500567
 C     3.472606    -3.327048     1.507821
 F     4.699752    -3.803628     1.736170
