 100
scf done:    -3734.536701
 C    -0.030646    -1.204097    -2.981136
 H    -0.620846    -2.082614    -3.267167
 H    -0.289416    -0.303602    -3.549403
 C     1.303911    -1.370606    -2.539397
 H     1.729904    -2.379639    -2.487760
 H     2.042775    -0.597226    -2.764379
 H     0.345926     0.505599    -1.274133
Co     0.098581    -0.915259    -0.989883
 C    -2.138529     1.428336    -1.883511
 C    -3.162113    -1.304735    -1.529210
 C    -2.546722     0.325573     0.921927
 C     0.888937    -0.481747     2.308845
 C     2.926918    -1.778232     0.597800
 C     2.345866     1.206283     0.600571
 P     1.562041    -0.483733     0.551939
 P    -1.905656    -0.087515    -0.803651
 C    -0.181198    -2.582242    -0.546144
 O    -0.323521    -3.698967    -0.296769
 H    -1.627494     1.078125    -2.796374
 C    -3.560024     1.822911    -2.260527
 H    -3.525974     2.699572    -2.927699
 H    -4.081610     1.028093    -2.808199
 H    -4.164119     2.096334    -1.384809
 C    -1.367441     2.638067    -1.368868
 H    -0.358511     2.366525    -1.026856
 H    -1.252680     3.375625    -2.178739
 H    -1.906207     3.133174    -0.549397
 H    -3.273219    -0.998732    -2.579944
 H    -2.614504    -2.255739    -1.553690
 C    -4.504124    -1.501076    -0.891114
 C    -5.645704    -0.880842    -1.413969
 H    -5.551045    -0.261059    -2.306956
 C    -4.648396    -2.344789     0.234152
 C    -3.499478    -3.157712     0.756891
 H    -2.609984    -2.553667     0.985068
 H    -3.172050    -3.905774     0.017219
 H    -3.780658    -3.694651     1.672916
 C    -6.896629    -1.026433    -0.820976
 H    -7.765914    -0.524806    -1.252409
 C    -5.908468    -2.465376     0.831064
 H    -6.013317    -3.107036     1.710189
 C    -7.026317    -1.808376     0.323428
 H    -7.997161    -1.922946     0.810936
 H    -3.095010    -0.575473     1.230965
 H    -1.635332     0.348863     1.528186
 C    -3.392811     1.530866     1.218609
 C    -4.774883     1.485494     0.999767
 H    -5.217424     0.568820     0.607989
 C    -2.830618     2.698624     1.777953
 C    -1.377388     2.777435     2.152062
 H    -0.714743     2.482462     1.325631
 H    -1.151031     2.114106     3.003881
 H    -1.103144     3.798451     2.450818
 C    -5.590791     2.581010     1.262878
 H    -6.664933     2.514441     1.074393
 C    -3.663761     3.795174     2.029647
 H    -3.224377     4.703023     2.452427
 C    -5.030245     3.751512     1.767775
 H    -5.655079     4.623796     1.973644
 H     0.261331     0.426888     2.288728
 C    -0.018931    -1.678440     2.555751
 H    -0.477673    -1.613896     3.555265
 H    -0.821504    -1.732796     1.811157
 H     0.539297    -2.627495     2.510584
 C     1.884225    -0.338304     3.453822
 H     2.660189     0.420527     3.282661
 H     1.351392    -0.062374     4.378098
 H     2.387711    -1.294869     3.654396
 H     2.563090    -2.510479     1.337350
 H     2.833170    -2.268298    -0.379168
 C     4.368131    -1.450433     0.869892
 C     4.875102    -1.496077     2.175405
 H     4.204135    -1.754988     2.995161
 C     5.260838    -1.177013    -0.191068
 C     4.812522    -1.193218    -1.619949
 H     3.997150    -0.478997    -1.797715
 H     4.440264    -2.188089    -1.913822
 H     5.638559    -0.929335    -2.293140
 C     6.215353    -1.243943     2.455401
 H     6.575555    -1.290294     3.485733
 C     6.603167    -0.917105     0.107350
 H     7.286127    -0.695967    -0.717219
 C     7.086065    -0.941235     1.412466
 H     8.140691    -0.736188     1.611076
 H     1.463438     1.865003     0.674764
 H     2.878299     1.289235     1.554387
 C     3.235206     1.676126    -0.518487
 C     2.738597     1.789176    -1.823249
 H     1.698353     1.514618    -2.008733
 C     4.568759     2.060789    -0.260423
 C     5.138927     2.076250     1.128147
 H     5.081444     1.091084     1.612791
 H     4.603824     2.794826     1.770978
 H     6.196384     2.371428     1.110579
 C     3.544233     2.209395    -2.877174
 H     3.129703     2.275013    -3.885841
 C     5.367700     2.471483    -1.334110
 H     6.405160     2.753932    -1.135195
 C     4.875092     2.537486    -2.634273
 H     5.525787     2.860161    -3.450650
