  84
scf done:    -3497.940406
 C    -1.145631    -1.541549    -2.676101
 H    -1.824575    -2.392669    -2.570337
 H    -1.579968    -0.682304    -3.195763
 C     0.247338    -1.740487    -2.687240
 H     0.648683    -2.756510    -2.615402
 H     0.892776    -1.051449    -3.239035
 H    -0.258001     0.382159    -1.408119
Co    -0.350384    -1.005793    -0.886210
 O    -2.930113     0.934269    -0.992254
 O    -3.353900    -1.434921    -0.337652
 O    -2.419132     0.285749     1.313626
 O     2.406262    -1.205960     0.775114
 O     2.525960     0.423830    -1.045969
 O     1.187753     0.915584     1.075637
 P     1.383341    -0.236323    -0.063317
 P    -2.196790    -0.298194    -0.205042
 C    -0.377757    -2.542508    -0.044784
 O    -0.373696    -3.533287     0.534849
 C    -2.948359     2.279609    -0.548754
 H    -3.683213     2.786419    -1.194642
 H    -3.322571     2.324323     0.486826
 C    -1.605712     2.976836    -0.644234
 H    -0.875477     2.457800     0.000153
 H    -1.228744     2.887966    -1.677687
 C    -1.709767     4.442293    -0.243608
 H    -2.078159     4.507140     0.795799
 H    -2.480777     4.934143    -0.863511
 C    -0.401603     5.206034    -0.365731
 H     0.374795     4.771913     0.282368
 H    -0.019628     5.182714    -1.398764
 H    -0.521539     6.261676    -0.078744
 C    -4.741169    -1.169758    -0.089579
 H    -4.821531    -0.243103     0.504841
 C    -5.285296    -2.328520     0.719286
 H    -4.754371    -2.420420     1.676702
 H    -5.159708    -3.270762     0.164250
 H    -6.356641    -2.186201     0.926187
 C    -5.449761    -0.985228    -1.416750
 H    -5.001415    -0.149425    -1.970068
 H    -5.357603    -1.898243    -2.025106
 H    -6.519430    -0.777134    -1.261261
 C    -1.641238    -0.164393     2.425496
 H    -0.623507    -0.383902     2.062744
 C    -2.250141    -1.420879     3.015069
 H    -2.280898    -2.229558     2.271000
 H    -3.277529    -1.226991     3.361264
 H    -1.655065    -1.770843     3.871866
 C    -1.574416     0.988724     3.401996
 H    -1.102993     1.860032     2.925495
 H    -2.585175     1.273025     3.733661
 H    -0.983682     0.712532     4.287855
 C     3.008375    -2.324582     0.138448
 H     2.948688    -3.160795     0.854328
 H     2.420883    -2.611802    -0.751297
 C     4.447466    -2.039905    -0.241054
 H     4.853468    -2.939625    -0.736972
 H     4.456039    -1.230890    -0.989151
 C     5.325237    -1.655716     0.941158
 H     5.327379    -2.479076     1.677818
 H     4.865393    -0.794945     1.454173
 C     6.751294    -1.317348     0.539755
 H     7.243827    -2.170541     0.045535
 H     6.774199    -0.472327    -0.167331
 H     7.364539    -1.039172     1.410398
 C     2.241582     1.188564    -2.214577
 H     1.248423     0.886071    -2.590636
 C     3.298316     0.844579    -3.242737
 H     3.290044    -0.234200    -3.456103
 H     4.298913     1.114499    -2.870709
 H     3.118398     1.387492    -4.182456
 C     2.195744     2.662942    -1.867504
 H     1.397635     2.860198    -1.139606
 H     3.154191     2.988991    -1.434231
 H     1.996121     3.267466    -2.765072
 C     2.286985     1.442245     1.839707
 H     3.218164     1.244212     1.282594
 C     2.344328     0.745315     3.184724
 H     2.454618    -0.337564     3.044822
 H     1.424219     0.939956     3.756151
 H     3.199005     1.115168     3.771414
 C     2.084357     2.937134     1.961850
 H     2.090050     3.416824     0.974275
 H     1.121338     3.155111     2.448998
 H     2.886412     3.384279     2.567706
