  78
scf done:    -3419.388150
 C    -0.891393    -0.846172    -2.905089
 H    -1.587328    -1.687900    -2.965011
 H    -1.314753     0.104759    -3.242452
 C     0.498503    -1.064471    -2.974105
 H     0.878145    -2.081474    -3.116818
 H     1.152742    -0.291707    -3.388250
 H     0.076909     0.760010    -1.328081
Co    -0.069713    -0.692757    -1.059409
 O    -2.372080     1.496885    -0.476622
 O    -3.177972    -0.827585    -0.719883
 O    -2.080253    -0.001743     1.436285
 O     2.640171    -1.153289     0.712631
 O     2.801912     0.765629    -0.784429
 O     1.275089     0.834920     1.270524
 P     1.626504    -0.097749    -0.026522
 P    -1.867700    -0.030876    -0.195825
 C    -0.125161    -2.377923    -0.583887
 O    -0.140231    -3.481818    -0.269619
 C    -1.578146     2.591031    -0.001947
 H    -0.609946     2.196491     0.355529
 C    -2.295893     3.247332     1.159770
 H    -2.458942     2.512190     1.959458
 H    -3.273691     3.637904     0.837337
 H    -1.701925     4.083321     1.560109
 C    -1.334659     3.520673    -1.171766
 H    -0.799680     2.991930    -1.974202
 H    -2.291759     3.884078    -1.576758
 H    -0.734562     4.390101    -0.863472
 C    -4.515821    -0.469592    -0.336975
 H    -4.462046     0.164235     0.564203
 C    -5.246548    -1.753520    -0.006400
 H    -4.752246    -2.281114     0.821055
 H    -5.259059    -2.420728    -0.881901
 H    -6.286248    -1.542187     0.285447
 C    -5.155381     0.309349    -1.468451
 H    -4.575971     1.219436    -1.671907
 H    -5.183965    -0.303192    -2.382894
 H    -6.186114     0.594783    -1.208023
 C    -1.403494    -0.897002     2.316536
 H    -0.384187    -1.059731     1.925268
 C    -2.136110    -2.222747     2.388152
 H    -2.206008    -2.691871     1.396730
 H    -3.156842    -2.075986     2.774703
 H    -1.608474    -2.920190     3.055838
 C    -1.310380    -0.196933     3.654522
 H    -0.792331     0.764804     3.537226
 H    -2.316140    -0.004845     4.059327
 H    -0.754160    -0.811291     4.377913
 C     3.756361    -1.788098     0.083889
 H     4.330008    -1.009276    -0.446084
 C     3.302526    -2.837160    -0.912761
 H     2.698390    -2.383591    -1.711295
 H     2.690695    -3.605312    -0.416302
 H     4.173399    -3.325974    -1.374671
 C     4.603293    -2.362300     1.199764
 H     4.913531    -1.571244     1.897652
 H     4.033521    -3.117627     1.762594
 H     5.505958    -2.840386     0.791316
 C     2.587345     1.670701    -1.863673
 H     1.617834     1.424343    -2.329860
 C     3.699395     1.450193    -2.866743
 H     3.697563     0.407199    -3.215686
 H     4.678703     1.659684    -2.409099
 H     3.574344     2.109482    -3.738413
 C     2.521987     3.088495    -1.332423
 H     1.681265     3.195408    -0.632820
 H     3.452195     3.349056    -0.803995
 H     2.374531     3.805043    -2.154226
 C     2.277180     1.391518     2.135099
 H     3.226495     1.437846     1.574648
 C     2.453834     0.511478     3.357466
 H     2.722955    -0.508080     3.054613
 H     1.522802     0.471388     3.941596
 H     3.248950     0.912651     4.004406
 C     1.830669     2.796015     2.486414
 H     1.735929     3.418282     1.585792
 H     0.852411     2.769840     2.991155
 H     2.555567     3.274055     3.162103
