  82
scf done:    -3871.311722
 C     0.804330    -2.356975    -1.313308
 H     1.467523    -1.997662    -2.103679
 H     1.263156    -3.090097    -0.640897
 C    -0.591306    -2.341932    -1.504903
 H    -1.015356    -1.981631    -2.446582
 H    -1.221132    -3.074639    -0.988547
 H     0.126110    -0.050459    -1.568474
Co    -0.031011    -0.810031    -0.308896
 O    -1.477505     1.897773    -1.116543
 C    -3.059752    -0.271393    -1.390582
 C    -2.535061     0.955379     1.217171
 O     1.506139     0.863269     1.872817
 C     3.045299    -1.053199     0.771854
 C     2.532555     1.513018    -0.578967
 P     1.733334     0.161561     0.372757
 P    -1.733073     0.438091    -0.357396
 C    -0.378113    -1.681934     1.175833
 O    -0.641649    -2.271734     2.126232
 C    -2.379886     2.973882    -1.014178
 H    -3.397061     2.690031    -1.329260
 H    -2.429135     3.358708     0.018183
 H    -2.004673     3.772862    -1.670153
 C    -3.269078     0.150315    -2.699090
 H    -2.689990     0.995631    -3.077750
 C    -3.761996    -1.392459    -0.911931
 O    -3.474280    -1.747020     0.355743
 C    -3.997544    -2.928355     0.890481
 H    -5.095602    -2.878000     0.998457
 H    -3.541528    -3.046328     1.881255
 H    -3.738669    -3.803536     0.269205
 C    -4.189496    -0.503182    -3.523512
 H    -4.346173    -0.160147    -4.548453
 C    -4.681519    -2.051373    -1.727430
 H    -5.231126    -2.918261    -1.358672
 C    -4.893607    -1.596678    -3.032373
 H    -5.613376    -2.117908    -3.668326
 C    -1.690203     1.061221     2.324932
 H    -0.623981     0.854473     2.196116
 C    -3.906827     1.242942     1.388992
 O    -4.688266     1.187576     0.294212
 C    -6.077951     1.270793     0.417103
 H    -6.471611     0.505778     1.108852
 H    -6.487074     1.089438    -0.585126
 H    -6.404247     2.267076     0.764875
 C    -2.175161     1.424973     3.580979
 H    -1.491397     1.498534     4.429022
 C    -4.400514     1.583324     2.652790
 H    -5.461682     1.791180     2.792259
 C    -3.533222     1.672873     3.741038
 H    -3.934232     1.943921     4.721110
 C     2.456336     1.685190     2.506823
 H     3.411452     1.159961     2.667298
 H     2.652849     2.597529     1.918904
 H     2.032892     1.978059     3.478813
 C     3.102182    -1.596481     2.053441
 H     2.426041    -1.206182     2.817772
 C     3.883818    -1.582360    -0.226824
 O     3.768499    -1.019788    -1.446865
 C     4.528413    -1.511313    -2.511243
 H     5.612300    -1.406704    -2.324718
 H     4.259441    -0.910499    -3.389142
 H     4.302796    -2.572267    -2.718015
 C     3.989455    -2.629995     2.362253
 H     4.018934    -3.041295     3.373398
 C     4.772600    -2.615945     0.073786
 H     5.425218    -3.027973    -0.696527
 C     4.822746    -3.133590     1.370648
 H     5.518736    -3.945650     1.594837
 C     1.712509     2.235199    -1.448524
 H     0.655865     1.964841    -1.516759
 C     3.895126     1.873498    -0.485553
 O     4.652438     1.192042     0.393819
 C     6.040231     1.352910     0.399219
 H     6.476277     1.156520    -0.595954
 H     6.433463     0.616745     1.112171
 H     6.339249     2.365026     0.725051
 C     2.212925     3.281969    -2.222790
 H     1.547716     3.829680    -2.893422
 C     4.404888     2.907010    -1.278324
 H     5.459105     3.178494    -1.218555
 C     3.561931     3.605960    -2.141645
 H     3.974644     4.414132    -2.751105
