  70
scf done:    -3714.328049
 C    -1.165649    -2.875434    -0.316748
 H    -0.482017    -3.520872     0.241328
 H    -2.229043    -2.983567    -0.084793
 C    -0.769538    -2.325896    -1.526689
 H     0.220236    -2.559650    -1.929041
 H    -1.522263    -2.026153    -2.261202
 H    -0.085882    -0.437744    -1.337453
Co    -0.601712    -0.878122    -0.030684
 O    -1.359791     1.742090    -1.610229
 O    -3.360267     0.360383    -1.221805
 O    -2.475921     1.648022     0.684820
 O     1.962762    -0.667672     1.851436
 O     2.379105    -1.701810    -0.463244
 O     2.174794     0.809895    -0.087339
 P     1.400032    -0.609201     0.337373
 P    -1.876128     0.656671    -0.526762
 C    -1.125362    -1.130512     1.612117
 O    -1.471039    -1.304442     2.692411
 C    -2.137097     2.846459    -2.032295
 H    -2.476105     3.442855    -1.170656
 H    -1.489776     3.459159    -2.672787
 H    -3.015882     2.508715    -2.601811
 C    -4.071657    -0.752252    -0.868839
 C    -4.483473    -1.620028    -1.880781
 H    -4.231547    -1.377284    -2.915002
 C    -4.377204    -1.027859     0.465676
 H    -4.062879    -0.328597     1.241645
 C    -5.195191    -2.771422    -1.554260
 H    -5.514665    -3.450421    -2.348409
 C    -5.078953    -2.189522     0.782258
 H    -5.306580    -2.408384     1.828152
 C    -5.488360    -3.065616    -0.222092
 H    -6.038058    -3.974478     0.031650
 C    -1.653086     2.107845     1.675691
 C    -2.094083     2.012917     2.995553
 H    -3.069183     1.565637     3.195941
 C    -0.405783     2.664968     1.386425
 H    -0.075838     2.735851     0.349094
 C    -1.282721     2.475651     4.027694
 H    -1.629822     2.396305     5.060549
 C     0.400645     3.116743     2.428500
 H     1.377743     3.550496     2.199971
 C    -0.030763     3.025549     3.750783
 H     0.605288     3.381815     4.563943
 C     3.013000     0.104930     2.406908
 H     3.187615    -0.289365     3.416623
 H     3.938786     0.021555     1.819541
 H     2.717056     1.161678     2.474172
 C     3.721005    -1.824795    -0.209329
 C     4.644297    -1.042448    -0.904185
 H     4.290059    -0.325477    -1.646676
 C     4.148739    -2.750200     0.743336
 H     3.401443    -3.343921     1.272365
 C     6.003612    -1.187731    -0.633929
 H     6.727362    -0.575580    -1.177399
 C     5.509613    -2.886301     1.005868
 H     5.844770    -3.609657     1.753110
 C     6.440898    -2.104860     0.321510
 H     7.507489    -2.213481     0.530092
 C     2.004963     1.477068    -1.260969
 C     2.026625     2.872899    -1.212110
 H     2.190468     3.360498    -0.249585
 C     1.837334     0.821509    -2.484203
 H     1.858609    -0.268266    -2.525918
 C     1.843578     3.610618    -2.377089
 H     1.859261     4.702252    -2.329978
 C     1.643635     1.572161    -3.642375
 H     1.499468     1.054726    -4.593801
 C     1.638589     2.964254    -3.596925
 H     1.488719     3.544726    -4.509760
