  50
scf done:    -2804.286106
 C    -0.992152    -2.423616    -1.433992
 H    -1.587586    -3.105153    -0.816056
 H    -1.523656    -2.064042    -2.321257
 C     0.416389    -2.582810    -1.478783
 H     0.877836    -3.387010    -0.894934
 H     0.961396    -2.342385    -2.397249
 H    -0.040857    -0.252652    -1.730317
Co    -0.087259    -0.947049    -0.420079
 O    -1.778449     1.782744    -0.982659
 C    -3.397452    -0.231870    -0.155689
 C    -1.641143     1.268852     1.581257
 O     1.778913     0.834560     1.387934
 C     3.285655    -0.498240    -0.503482
 C     1.666124     1.781040    -1.199923
 P     1.638040     0.252391    -0.173764
 P    -1.675367     0.408925    -0.035090
 C    -0.030980    -1.721563     1.150456
 O     0.029526    -2.218948     2.185297
 C    -1.936100     1.669345    -2.371834
 H    -1.221021     0.943462    -2.800310
 H    -2.960144     1.355857    -2.643133
 H    -1.749303     2.659247    -2.812823
 H    -3.486391    -0.678376    -1.159063
 C    -3.716769    -1.270968     0.908282
 H    -3.716462    -0.834495     1.918915
 H    -2.979022    -2.087265     0.896704
 H    -4.093387     0.622311    -0.112909
 H    -4.709935    -1.714244     0.741016
 H    -0.628446     1.699413     1.645547
 C    -2.719064     2.308363     1.832613
 H    -3.723489     1.858929     1.870687
 H    -2.720192     3.066078     1.036120
 H    -1.653698     0.465636     2.337713
 H    -2.553105     2.820019     2.793162
 C     2.969830     1.210052     2.030244
 H     3.619859     0.342030     2.233088
 H     3.553371     1.953898     1.464639
 H     2.691748     1.657552     2.995796
 H     4.085200     0.235104    -0.305908
 C     3.515757    -1.793964     0.259407
 H     2.745740    -2.532559    -0.001114
 H     3.463862    -1.642863     1.348214
 H     3.291912    -0.686395    -1.590351
 H     4.502026    -2.222586     0.025681
 H     0.654570     2.202411    -1.082108
 C     2.725270     2.840800    -0.949120
 H     3.749663     2.444485    -1.026478
 H     2.608218     3.295682     0.045028
 H     1.708836     1.406274    -2.237130
 H     2.636258     3.652876    -1.687439
