  96
scf done:    -4203.132144
 C    -0.876726    -1.261580    -3.410136
 H    -0.433079    -0.861797    -4.328929
 H    -0.568414    -2.287341    -3.182796
 C    -2.163424    -0.825523    -3.007943
 H    -2.699589    -0.093225    -3.623230
 H    -2.814008    -1.518381    -2.465743
 H    -0.898817    -1.258776    -1.038500
Co    -0.741299    -0.030755    -1.831909
 O     1.042948    -0.741008     0.610547
 C     2.149320    -1.730241    -1.752648
 C     2.306257     1.145139    -0.969179
 O    -0.741492     2.121237     0.370021
 C    -3.260812     1.931603    -0.606421
 C    -2.128937     0.010624     1.345231
 P    -1.737276     0.916351    -0.228446
 P     1.167717    -0.333973    -0.994612
 C    -0.449894     1.443349    -2.738239
 O    -0.245399     2.425391    -3.301085
 C     2.011291    -1.417069     1.389174
 H     2.051849    -2.480851     1.086999
 H     3.014293    -0.988295     1.234357
 C     1.620427    -1.314401     2.846675
 H     1.459050    -0.250042     3.083218
 H     0.652105    -1.821394     3.001071
 C     2.677074    -1.891810     3.776614
 H     3.629343    -1.357478     3.611420
 H     2.869849    -2.945902     3.507882
 C     2.290596    -1.802055     5.243687
 H     2.130514    -0.755161     5.547730
 H     1.356761    -2.350353     5.446283
 H     3.072123    -2.220819     5.895062
 H     1.783708    -2.640369    -1.251498
 H     1.745296    -1.772595    -2.774188
 C     3.645814    -1.679480    -1.803397
 C     4.282635    -1.000625    -2.852519
 H     3.677963    -0.529418    -3.632398
 C     4.453766    -2.308058    -0.847662
 H     3.991850    -2.868751    -0.033342
 C     5.670439    -0.920912    -2.934500
 H     6.166887    -0.394187    -3.751388
 C     5.842498    -2.242292    -0.912935
 H     6.472775    -2.731498    -0.168237
 C     6.436550    -1.540201    -1.954163
 F     7.764523    -1.469968    -2.021161
 H     2.847241     1.150058    -1.927806
 H     1.601536     1.988692    -0.984589
 C     3.230632     1.286952     0.199419
 C     2.715019     1.716784     1.430096
 H     1.653488     1.961199     1.495493
 C     4.592176     0.972263     0.124049
 H     5.020645     0.649992    -0.826392
 C     3.519495     1.795773     2.562419
 H     3.124154     2.120200     3.526932
 C     5.411244     1.043893     1.248176
 H     6.471423     0.789442     1.197063
 C     4.860102     1.443292     2.459077
 F     5.632929     1.495732     3.544460
 C    -1.013350     2.920499     1.501188
 H    -2.103100     3.043299     1.651693
 H    -0.621821     2.423991     2.408047
 C    -0.367074     4.277556     1.310273
 H    -0.522258     4.869013     2.229640
 H     0.723724     4.138351     1.212574
 C    -0.894525     5.032836     0.098407
 H    -1.981593     5.194664     0.216448
 H    -0.776189     4.394173    -0.792137
 C    -0.199551     6.365492    -0.124463
 H    -0.322253     7.035549     0.741865
 H     0.882006     6.226793    -0.282311
 H    -0.598783     6.886118    -1.007679
 H    -3.204247     2.853065    -0.009061
 H    -3.136839     2.225878    -1.659149
 C    -4.585398     1.269930    -0.385568
 C    -5.062742     0.284049    -1.259061
 H    -4.460719    -0.004085    -2.121646
 C    -5.379016     1.617963     0.714482
 H    -5.034299     2.393825     1.403876
 C    -6.284197    -0.343670    -1.039541
 H    -6.655884    -1.118438    -1.712269
 C    -6.607395     1.002325     0.948612
 H    -7.231679     1.272759     1.802033
 C    -7.041951     0.020758     0.066992
 F    -8.209619    -0.582358     0.286497
 H    -1.139449    -0.031904     1.826877
 H    -2.789352     0.636844     1.964556
 C    -2.684642    -1.376279     1.206304
 C    -4.053913    -1.630719     1.330846
 H    -4.738222    -0.808074     1.544073
 C    -1.830588    -2.458562     0.950041
 H    -0.758712    -2.273510     0.867892
 C    -4.568576    -2.916456     1.185265
 H    -5.638117    -3.114513     1.276130
 C    -2.327730    -3.750142     0.802769
 H    -1.669440    -4.597588     0.602938
 C    -3.696303    -3.962156     0.915029
 F    -4.179308    -5.197016     0.770646
