  54
scf done:    -3105.080076
 C     1.135582    -2.748061    -0.204005
 H     1.616670    -2.953937    -1.165170
 H     1.821830    -2.744403     0.646201
 C    -0.221007    -3.071587    -0.010490
 H    -0.783121    -3.542716    -0.823152
 H    -0.588927    -3.313527     0.991077
 H     0.240744    -1.029841     1.214508
Co     0.013099    -1.067536    -0.244146
 O     3.027764    -0.000058    -0.321612
 O     1.312490     1.638248    -1.149678
 O     1.690057     1.221692     1.330984
 O    -2.180396     1.194234     0.578458
 O    -3.238662    -0.783816    -0.396392
 O    -2.201922    -0.867072     1.936330
 P    -1.850413    -0.400887     0.412144
 P     1.468695     0.405763    -0.077994
 C    -0.194467    -0.996415    -1.987634
 O    -0.322362    -0.945049    -3.126628
 C     4.109233     0.093413     0.610677
 H     4.032273     1.057516     1.139224
 C     5.382514     0.061430    -0.207393
 H     5.402847     0.889908    -0.930270
 H     5.453576    -0.883687    -0.766793
 H     6.262931     0.148663     0.446537
 C     4.029411    -1.029628     1.626136
 H     3.081897    -0.980979     2.181322
 H     4.093512    -2.007222     1.124568
 H     4.855446    -0.954208     2.349424
 C     2.280696     2.659369    -1.248419
 H     2.463507     3.134834    -0.270941
 H     3.232013     2.262333    -1.637025
 H     1.893227     3.412896    -1.947608
 C     0.617449     1.579203     2.173948
 H    -0.087858     2.257148     1.670503
 H     0.056876     0.690575     2.507285
 H     1.051045     2.082535     3.049037
 C    -2.791904     2.029757    -0.409686
 H    -3.823661     1.666534    -0.556770
 C    -2.055614     1.981087    -1.734955
 H    -2.145524     0.991281    -2.203061
 H    -0.985634     2.196900    -1.597730
 H    -2.486226     2.717157    -2.430410
 C    -2.828106     3.420341     0.188199
 H    -3.321681     3.406130     1.170725
 H    -1.806251     3.809417     0.318619
 H    -3.378882     4.108541    -0.469795
 C    -3.394502    -2.038534    -1.016512
 H    -2.657583    -2.188390    -1.821755
 H    -3.300407    -2.866157    -0.294530
 H    -4.403076    -2.061855    -1.452194
 C    -3.398929    -0.461930     2.568459
 H    -3.369362     0.610505     2.815622
 H    -4.274400    -0.653543     1.927940
 H    -3.491591    -1.048182     3.492662
