  84
scf done:    -3649.226729
 C    -0.157214    -3.526820    -0.948939
 H     0.184247    -3.815401    -1.948816
 H     0.450842    -3.940574    -0.138780
 C    -1.520606    -3.229468    -0.733534
 H    -2.230463    -3.281386    -1.566137
 H    -1.968719    -3.425887     0.245821
 H    -0.216770    -1.811780     0.714764
Co    -0.410036    -1.538396    -0.726785
 O     1.402039     0.018187     1.299372
 C     2.699815    -2.091803     0.188877
 C     2.358952     0.388789    -1.217643
 O    -1.397533     1.394271    -0.023544
 C    -3.541492    -0.131067    -0.776203
 C    -2.293956    -0.426496     1.777501
 P    -1.879281    -0.198486     0.009914
 P     1.454668    -0.799089    -0.144878
 C    -0.358077    -1.206697    -2.447751
 O    -0.261034    -1.023226    -3.579136
 C     2.506543     0.736137     1.817426
 H     2.549967     0.515527     2.898186
 H     3.454609     0.370094     1.384905
 C     2.372183     2.228766     1.592403
 H     2.248343     2.418856     0.514542
 H     1.445038     2.581104     2.076444
 C     3.571658     3.003027     2.117938
 H     4.486140     2.618896     1.631962
 H     3.698438     2.802976     3.197129
 C     3.468065     4.501000     1.883296
 H     3.385322     4.726954     0.808345
 H     2.578592     4.923141     2.378146
 H     4.348676     5.035451     2.270543
 C     3.328422    -2.752179    -0.874533
 C     2.915971    -2.540508     1.495436
 C     4.409701    -4.254970     0.677512
 C     3.770707    -3.615180     1.737743
 C     4.183554    -3.822849    -0.630303
 H     3.140474    -2.429054    -1.902343
 H     4.672260    -4.328600    -1.466596
 H     5.078643    -5.097595     0.867957
 H     3.934471    -3.957119     2.762667
 H     2.398345    -2.049666     2.322939
 C     3.754331     0.470055    -1.306247
 C     1.578228     1.326183    -1.906289
 C     3.569305     2.412872    -2.731913
 C     2.178867     2.334141    -2.655807
 C     4.355205     1.477559    -2.059589
 H     4.378752    -0.258839    -0.784071
 H     5.444882     1.531905    -2.121154
 H     4.042205     3.202143    -3.321459
 H     1.557332     3.062292    -3.182442
 H     0.489761     1.272209    -1.823142
 C    -2.236077     2.466459     0.368699
 H    -2.993810     2.646138    -0.415771
 H    -2.775969     2.210676     1.297770
 C    -1.396612     3.705921     0.588187
 H    -2.069282     4.510256     0.935254
 H    -0.689429     3.514454     1.413874
 C    -0.630268     4.160770    -0.644294
 H    -1.342376     4.327476    -1.472315
 H     0.026266     3.339174    -0.966422
 C     0.195315     5.414005    -0.409221
 H    -0.437274     6.268025    -0.117085
 H     0.931343     5.258623     0.395072
 H     0.752451     5.706341    -1.312505
 C    -3.671423    -0.558077    -2.102460
 C    -4.673763     0.371685    -0.117919
 C    -6.013547     0.027312    -2.098071
 C    -5.899839     0.450023    -0.773883
 C    -4.896418    -0.475845    -2.761611
 H    -2.801416    -0.958509    -2.624710
 H    -4.977938    -0.813694    -3.797377
 H    -6.976441     0.086606    -2.611383
 H    -6.772757     0.842027    -0.246207
 H    -4.600935     0.694377     0.922941
 C    -1.526611     0.235603     2.743452
 C    -3.255138    -1.357799     2.187483
 C    -2.703813    -0.932613     4.501356
 C    -3.457813    -1.608998     3.543233
 C    -1.737700    -0.011270     4.097555
 H    -0.743808     0.923929     2.419019
 H    -1.137330     0.514726     4.844162
 H    -2.865965    -1.127880     5.564173
 H    -4.211123    -2.337704     3.852423
 H    -3.851916    -1.890233     1.442495
