  74
scf done:    -3118.541713
 C     1.117468    -2.471679     1.675666
 H     1.645780    -3.278869     1.157200
 H     1.734282    -1.947178     2.413952
 C    -0.277737    -2.565181     1.879925
 H    -0.819128    -3.448074     1.522482
 H    -0.708879    -2.117950     2.781115
 H     0.147485    -0.218668     1.507936
Co     0.144145    -1.219725     0.430604
 O     2.545495     0.918590     1.048638
 C     3.443381    -1.065814    -0.368100
 C     1.675497     1.115155    -1.517324
 O    -1.374134     1.306958    -0.521854
 C    -2.980423    -0.978745    -0.937312
 C    -2.568787     0.312155     1.755496
 P    -1.697763    -0.176277     0.171554
 P     1.884349    -0.082315    -0.105583
 C     0.028154    -2.211155    -0.999601
 O    -0.103548    -2.817560    -1.972776
 C     1.898092     1.426190     2.202817
 H     1.316979     0.606869     2.666516
 C     0.940021     2.547819     1.846713
 H     0.177624     2.194601     1.137304
 H     1.479938     3.391492     1.388503
 H     0.426696     2.918124     2.747881
 C     2.993961     1.858606     3.155878
 H     3.662098     1.014586     3.379576
 H     3.596581     2.665029     2.709828
 H     2.564405     2.226488     4.099616
 H     3.575125    -1.459662     0.655557
 C     3.288357    -2.256922    -1.304208
 H     4.222154    -2.841782    -1.313231
 H     2.479706    -2.926620    -0.985498
 H     3.083854    -1.951927    -2.340648
 C     4.672298    -0.230822    -0.707362
 H     4.754048     0.649262    -0.055450
 H     5.583633    -0.837743    -0.580304
 H     4.653333     0.107736    -1.754446
 H     0.670868     1.496099    -1.272649
 C     2.635822     2.296136    -1.569029
 H     2.233899     3.069709    -2.244951
 H     2.777095     2.746527    -0.577968
 H     3.626386     2.012634    -1.951414
 C     1.573926     0.399348    -2.859352
 H     0.883367    -0.455860    -2.830070
 H     1.205663     1.095105    -3.631023
 H     2.554721     0.033325    -3.200255
 C    -2.136555     2.257207    -1.256880
 H    -3.184405     2.246028    -0.914674
 C    -2.083507     1.939167    -2.741182
 H    -2.500881     0.947064    -2.960112
 H    -1.041604     1.952860    -3.094152
 H    -2.654581     2.683197    -3.316840
 C    -1.548050     3.623217    -0.955795
 H    -1.601793     3.849363     0.118587
 H    -0.489413     3.656584    -1.255673
 H    -2.089993     4.408201    -1.504011
 H    -2.442946    -0.961650    -1.903267
 C    -3.189977    -2.450442    -0.571017
 H    -3.615884    -2.989370    -1.431649
 H    -2.255809    -2.948442    -0.285224
 H    -3.894172    -2.557616     0.265626
 C    -4.336665    -0.301960    -1.117373
 H    -4.273178     0.727985    -1.488111
 H    -4.935040    -0.872279    -1.846709
 H    -4.907796    -0.288993    -0.177622
 H    -1.698741     0.487641     2.410284
 C    -3.380357     1.600681     1.719133
 H    -3.750653     1.828393     2.732173
 H    -2.773983     2.455917     1.393540
 H    -4.260206     1.527179     1.063130
 C    -3.370623    -0.837135     2.358420
 H    -2.816621    -1.784858     2.341239
 H    -3.614893    -0.609723     3.408383
 H    -4.324099    -0.988113     1.830519
