  90
scf done:    -3576.490368
 C     0.186543     1.526686    -2.153257
 H     0.881915     1.185175    -2.925328
 H    -0.783464     1.858606    -2.530838
 C     0.693820     2.037042    -0.939236
 H     1.776159     2.128387    -0.799472
 H     0.122593     2.788782    -0.381949
 H     0.266738    -0.311328     0.710052
Co    -0.003544     0.139768    -0.693782
 O    -1.465563     1.750182     1.699424
 O    -3.029804     1.268796    -0.112997
 O    -2.234901    -0.658141     1.220436
 O     2.709822    -0.507285    -2.124899
 O     3.074874    -0.034295     0.259078
 O     2.173690    -2.224698    -0.287036
 P     1.923395    -0.664608    -0.717281
 P    -1.633964     0.661413     0.487717
 C    -0.889794    -0.976017    -1.694173
 O    -1.512422    -1.657434    -2.383422
 C    -0.260480     1.869917     2.456587
 H     0.582658     1.678346     1.769722
 C    -0.245373     0.835844     3.565892
 H    -0.299154    -0.180881     3.149536
 H    -1.106211     0.979032     4.237402
 H     0.676656     0.919360     4.161033
 C    -0.191212     3.295247     2.958616
 H    -0.202928     4.001858     2.116056
 H    -1.049460     3.518113     3.611138
 H     0.732564     3.457926     3.533480
 C    -3.420262     2.632565    -0.154652
 H    -4.521324     2.622144    -0.099187
 H    -3.040440     3.153999     0.737065
 C    -2.969938     3.325946    -1.423612
 H    -3.341725     4.365488    -1.387452
 H    -1.868217     3.399350    -1.428593
 C    -3.448394     2.643016    -2.696927
 H    -4.551442     2.586350    -2.682879
 H    -3.097214     1.597814    -2.689447
 C    -2.983115     3.342616    -3.963245
 H    -3.347800     4.381759    -4.006443
 H    -1.883095     3.378698    -4.017261
 H    -3.341832     2.825451    -4.865853
 C    -3.499717    -0.701559     1.868389
 H    -3.345590    -1.286408     2.790375
 H    -3.815954     0.312326     2.161564
 C    -4.533360    -1.361960     0.979486
 H    -5.484740    -1.413204     1.538784
 H    -4.710047    -0.707766     0.109719
 C    -4.127201    -2.750475     0.504446
 H    -3.929172    -3.394271     1.380620
 H    -3.170143    -2.669719    -0.035498
 C    -5.166988    -3.399805    -0.393297
 H    -6.133317    -3.516564     0.124135
 H    -5.346368    -2.790908    -1.293826
 H    -4.845942    -4.397745    -0.728267
 C     4.077840    -0.907446    -2.303772
 H     4.383113    -1.502484    -1.426782
 C     4.935813     0.337337    -2.390147
 H     4.843982     0.920729    -1.463781
 H     4.613823     0.965156    -3.235226
 H     5.993787     0.071326    -2.536174
 C     4.135948    -1.774469    -3.543276
 H     3.490674    -2.657176    -3.426203
 H     3.789898    -1.209874    -4.422523
 H     5.164825    -2.116940    -3.730090
 C     3.047927    -0.241354     1.659265
 H     2.024314    -0.070847     2.039328
 H     3.309933    -1.290112     1.876047
 C     4.024852     0.709150     2.314288
 H     4.043904     0.484322     3.395253
 H     5.038349     0.490491     1.934659
 C     3.699778     2.178838     2.090324
 H     2.689458     2.389134     2.481478
 H     3.643418     2.366205     1.005780
 C     4.705228     3.120541     2.730992
 H     4.758530     2.972037     3.821901
 H     5.717864     2.956203     2.328742
 H     4.444677     4.174569     2.551322
 C     1.319652    -3.300533    -0.646289
 H     0.455137    -2.930686    -1.218820
 H     1.892146    -3.970198    -1.309351
 C     0.844872    -4.044907     0.583536
 H     0.253687    -4.910550     0.234717
 H     1.719440    -4.462159     1.113642
 C     0.010932    -3.197586     1.533145
 H    -0.800505    -2.701721     0.977910
 H     0.635666    -2.373470     1.915156
 C    -0.568651    -3.983761     2.696205
 H    -1.242369    -4.782311     2.344539
 H     0.220369    -4.461754     3.299878
 H    -1.151485    -3.332076     3.365397
