  98
scf done:    -3432.812057
 C    -0.608902    -1.615730    -2.910085
 H    -1.228485    -2.518160    -2.857359
 H    -1.045447    -0.822969    -3.525731
 C     0.802447    -1.733106    -2.825978
 H     1.253368    -2.725012    -2.707284
 H     1.431777    -1.028697    -3.378565
 H     0.193363     0.362486    -1.813040
Co     0.043281    -0.948095    -1.133943
 O    -1.030948     1.748922     0.002736
 C    -2.930527     0.523366    -1.569618
 C    -2.404806    -0.363624     1.129811
 O     1.281050     0.013070     1.664285
 C     3.247676    -1.149238     0.118967
 C     2.202674     1.490752    -0.339081
 P     1.659735    -0.214971     0.045357
 P    -1.552452     0.223809    -0.393769
 C    -0.186259    -2.468070    -0.306584
 O    -0.332430    -3.483547     0.219899
 C    -1.635815     2.689001     0.880319
 H    -2.698791     2.432012     1.034894
 C    -1.560088     4.045843     0.206907
 H    -2.073870     4.026215    -0.765272
 H    -0.508887     4.320460     0.028737
 H    -2.022289     4.823327     0.833527
 C    -0.921698     2.661370     2.218833
 H    -0.990702     1.667401     2.679524
 H     0.146689     2.886181     2.082767
 H    -1.354865     3.401668     2.908691
 H    -2.449401     0.945045    -2.467445
 H    -3.264489    -0.486572    -1.865539
 C    -4.114032     1.376125    -1.137627
 H    -4.534010     0.996480    -0.189323
 H    -3.777673     2.405769    -0.932211
 C    -5.221148     1.420010    -2.183009
 H    -5.567581     0.390848    -2.389043
 H    -4.805594     1.790358    -3.137709
 C    -6.408059     2.282812    -1.777949
 H    -6.814876     1.910985    -0.820556
 H    -6.054978     3.309086    -1.572175
 C    -7.511997     2.321360    -2.822240
 H    -8.354702     2.952166    -2.501105
 H    -7.908428     1.312709    -3.021467
 H    -7.141964     2.722468    -3.779515
 H    -1.580076    -0.579793     1.828227
 H    -3.022459     0.423646     1.590961
 C    -3.236134    -1.617558     0.877311
 H    -4.204228    -1.335511     0.428067
 H    -2.736568    -2.257424     0.130436
 C    -3.476699    -2.439113     2.135473
 H    -3.969615    -1.811616     2.900724
 H    -2.498748    -2.726650     2.562101
 C    -4.302527    -3.693497     1.891012
 H    -5.275594    -3.408667     1.452433
 H    -3.796178    -4.307662     1.125794
 C    -4.528005    -4.521487     3.145558
 H    -5.123785    -5.422964     2.936778
 H    -5.060300    -3.942292     3.917491
 H    -3.571208    -4.849518     3.582755
 C     1.785522    -0.685620     2.789086
 H     2.874625    -0.835715     2.674680
 C     1.123523    -2.043422     2.946591
 H     1.301102    -2.689611     2.076599
 H     0.034274    -1.928941     3.059783
 H     1.510157    -2.560469     3.837924
 C     1.558448     0.204595     3.995912
 H     2.038454     1.183221     3.851364
 H     0.481700     0.371676     4.150860
 H     1.971733    -0.258018     4.904536
 H     3.911302    -0.704383     0.879062
 H     3.007368    -2.171379     0.456222
 C     3.957014    -1.203746    -1.227739
 H     3.251923    -1.562622    -1.993375
 H     4.248047    -0.184323    -1.536244
 C     5.192961    -2.091979    -1.213323
 H     4.901560    -3.114207    -0.910222
 H     5.894736    -1.738234    -0.435587
 C     5.910551    -2.149318    -2.554643
 H     5.200796    -2.495252    -3.326660
 H     6.199334    -1.126017    -2.853860
 C     7.137873    -3.045987    -2.546384
 H     7.633734    -3.066496    -3.528692
 H     6.872412    -4.083429    -2.286446
 H     7.879208    -2.702503    -1.806762
 H     2.516667     1.484750    -1.396424
 H     1.262346     2.063673    -0.308118
 C     3.253970     2.100017     0.571107
 H     2.957801     1.929589     1.620418
 H     4.223908     1.588921     0.437010
 C     3.441505     3.593737     0.341868
 H     2.470307     4.103474     0.481583
 H     3.721249     3.773069    -0.712254
 C     4.480292     4.226458     1.256897
 H     4.198204     4.035163     2.307706
 H     5.448911     3.715612     1.111980
 C     4.651791     5.720662     1.036383
 H     5.408057     6.148801     1.711742
 H     3.706886     6.260537     1.210068
 H     4.967293     5.938056     0.003170
