  82
scf done:    -3871.468050
 C     0.335088     3.049593     0.321699
 H     1.189265     3.516660    -0.178269
 H    -0.624911     3.544046     0.145824
 C     0.535079     2.295256     1.495949
 H     1.534305     2.183513     1.928287
 H    -0.265279     2.237749     2.242071
 H     0.415983    -0.375681     0.261711
Co     0.265518     1.069756    -0.103126
 O    -1.254491    -0.594357     2.104760
 O    -2.676691     1.214043     1.287223
 O    -2.204751    -0.768348    -0.273612
 O     3.260131     1.698498    -1.042311
 O     3.080011     0.112724     0.957177
 O     2.572266    -0.645549    -1.439203
 P     2.260647     0.605972    -0.396186
 P    -1.412998     0.265127     0.746168
 C    -0.239802     1.231395    -1.771026
 O    -0.579065     1.345822    -2.862711
 C    -2.207430    -0.705644     3.147008
 H    -2.373596     0.267955     3.630106
 H    -3.170137    -1.094154     2.783856
 H    -1.785968    -1.409979     3.876351
 C    -3.128320     2.299173     0.587810
 C    -3.382175     3.471920     1.299909
 H    -3.199551     3.483395     2.376086
 C    -3.341600     2.261710    -0.790015
 H    -3.142892     1.346597    -1.349841
 C    -3.843837     4.599869     0.632000
 H    -4.034480     5.514641     1.200378
 C    -3.791889     3.406849    -1.444972
 H    -3.937856     3.370837    -2.527878
 C    -4.053488     4.593168    -0.754076
 C    -4.559360     5.816510    -1.462376
 H    -5.633192     5.975110    -1.267857
 H    -4.429537     5.732991    -2.550595
 H    -4.032549     6.722658    -1.126411
 C    -3.145106    -1.671578     0.150796
 C    -4.494026    -1.324149     0.178988
 H    -4.796406    -0.319569    -0.122374
 C    -2.737494    -2.945417     0.543047
 H    -1.672816    -3.182779     0.518459
 C    -5.432477    -2.262312     0.602736
 H    -6.489816    -1.984152     0.626154
 C    -3.688209    -3.870057     0.964200
 H    -3.362282    -4.866824     1.275072
 C    -5.051455    -3.549061     1.001689
 C    -6.073637    -4.563861     1.425620
 H    -6.406735    -5.172792     0.568295
 H    -6.966860    -4.083675     1.850741
 H    -5.667425    -5.256086     2.177632
 C     4.393724     1.482966    -1.866850
 H     5.292082     1.305269    -1.256876
 H     4.234362     0.628047    -2.538552
 H     4.532719     2.395693    -2.462157
 C     4.449224     0.035376     1.009730
 C     5.164149     1.084249     1.585383
 H     4.617495     1.948216     1.967690
 C     5.122452    -1.074139     0.500860
 H     4.555852    -1.884249     0.040028
 C     6.552886     1.021811     1.642253
 H     7.106668     1.852110     2.089377
 C     6.512857    -1.121446     0.566305
 H     7.034618    -1.992282     0.159781
 C     7.254624    -0.079551     1.134886
 C     8.751187    -0.153028     1.229080
 H     9.209960     0.843454     1.149917
 H     9.174710    -0.788076     0.437666
 H     9.066195    -0.580715     2.195761
 C     1.742597    -1.736202    -1.521584
 C     1.657596    -2.651748    -0.474257
 H     2.235655    -2.486751     0.436709
 C     0.986479    -1.920901    -2.676546
 H     1.051207    -1.181454    -3.476479
 C     0.817728    -3.756872    -0.597058
 H     0.761121    -4.474126     0.226779
 C     0.148366    -3.025660    -2.779576
 H    -0.448615    -3.157852    -3.685977
 C     0.045353    -3.964263    -1.744916
 C    -0.895541    -5.128675    -1.852735
 H    -0.888341    -5.561720    -2.864059
 H    -1.931311    -4.815940    -1.637495
 H    -0.635913    -5.924318    -1.139585
