  66
scf done:    -3413.522830
 C     0.357294    -1.877939     2.726299
 H     0.828570    -2.861860     2.627889
 H     0.865636    -1.204549     3.421513
 C    -1.020719    -1.739042     2.471953
 H    -1.614596    -2.603515     2.157069
 H    -1.594286    -0.966714     2.993366
 H     0.005744     0.319364     1.714295
Co     0.065222    -0.952868     0.951156
 O     2.693570     0.295014     2.105884
 C     3.236820    -0.789260    -0.314014
 C     1.812727     1.692104    -0.043236
 O    -1.083532    -0.058308    -1.842682
 C    -2.958685    -1.272200    -0.319747
 C    -2.270104     1.468136     0.102239
 P    -1.503815    -0.165025    -0.230740
 P     1.906057     0.009654     0.670732
 C     0.254540    -2.389542    -0.039587
 O     0.378647    -3.318501    -0.703048
 C     4.068577     0.593585     2.161162
 H     4.684123    -0.288623     1.919789
 H     4.351838     1.408638     1.472426
 H     4.290043     0.909386     3.191029
 C     3.492900    -2.140486    -0.043184
 C     4.022688    -0.127964    -1.264340
 C     5.280241    -2.152960    -1.664795
 C     5.033420    -0.809582    -1.941154
 C     4.511480    -2.816572    -0.708389
 H     2.885337    -2.662672     0.700695
 H     4.699913    -3.869575    -0.486203
 H     6.073278    -2.685112    -2.195786
 H     5.635025    -0.284156    -2.686966
 H     3.845939     0.928384    -1.478258
 C     2.014014     2.822095     0.756026
 C     1.365269     1.856956    -1.360646
 C     1.355327     4.257072    -1.073486
 C     1.143203     3.132486    -1.872134
 C     1.789930     4.098940     0.240780
 H     2.320309     2.695329     1.796585
 H     1.948749     4.974857     0.874880
 H     1.172090     5.256717    -1.474518
 H     0.789454     3.249730    -2.899458
 H     1.153638     0.978217    -1.973919
 C    -1.901597     0.533793    -2.821095
 H    -2.913370     0.092411    -2.839841
 H    -1.994754     1.621778    -2.665753
 H    -1.425467     0.353204    -3.795929
 C    -3.946072    -1.247527     0.673495
 C    -3.004965    -2.268675    -1.302236
 C    -5.018725    -3.172211    -0.318604
 C    -4.032954    -3.209636    -1.303412
 C    -4.970593    -2.190605     0.671594
 H    -3.912629    -0.483978     1.454978
 H    -5.736246    -2.160295     1.450670
 H    -5.823052    -3.911697    -0.318790
 H    -4.060146    -3.980569    -2.077374
 H    -2.221353    -2.309549    -2.062698
 C    -1.519234     2.442818     0.766761
 C    -3.551938     1.801050    -0.361020
 C    -3.299785     4.048287     0.488178
 C    -4.063505     3.081659    -0.166450
 C    -2.026579     3.726423     0.953669
 H    -0.527061     2.185657     1.140020
 H    -1.420305     4.475362     1.468359
 H    -3.702134     5.053152     0.639093
 H    -5.065480     3.325783    -0.527662
 H    -4.160765     1.050076    -0.869559
