  96
scf done:    -3282.419647
 C    -0.115427     2.206822    -0.471657
 H    -0.874385     2.787110     0.063982
 H     0.831453     2.749014    -0.570167
 C    -0.499877     1.279696    -1.480397
 H    -1.556631     1.178116    -1.752252
 H     0.150930     1.150720    -2.355285
 H     0.001704    -1.157340     0.038953
Co     0.075067     0.330604     0.197563
 C     1.666920    -1.372995    -2.240136
 C     3.034612     1.046778    -1.283468
 C     2.979087    -1.275058     0.420325
 C    -1.892419    -1.255170     2.377942
 C    -3.174540     1.071297     1.180911
 C    -2.793149    -1.272380    -0.454151
 P    -1.920451    -0.237657     0.801327
 P     1.905948    -0.303117    -0.720842
 C     0.689837     0.720149     1.771118
 O     1.098293     1.012033     2.812894
 H     0.757305    -0.929642    -2.677563
 C     2.774089    -1.323305    -3.287123
 H     2.505614    -1.965226    -4.142070
 H     2.931483    -0.308823    -3.679784
 H     3.736157    -1.687467    -2.895996
 C     1.328924    -2.806369    -1.845804
 H     0.536124    -2.833302    -1.083074
 H     0.971705    -3.367456    -2.723870
 H     2.207051    -3.340545    -1.450188
 H     2.448288     1.668538    -1.982563
 H     3.870702     0.625347    -1.860717
 C     3.541060     1.895667    -0.124457
 H     2.695727     2.135943     0.540512
 H     4.248687     1.307230     0.487238
 C     4.226789     3.198674    -0.540535
 H     3.498260     3.775699    -1.141579
 C     4.575670     4.025083     0.691585
 H     3.683230     4.229512     1.302981
 H     5.026696     4.990801     0.415156
 H     5.299165     3.489924     1.329366
 C     5.460270     2.955342    -1.402940
 H     5.948911     3.903576    -1.675882
 H     5.215755     2.429827    -2.338442
 H     6.201212     2.344487    -0.859035
 H     2.376471    -2.139188     0.743969
 H     3.062630    -0.636085     1.313451
 C     4.352168    -1.717943    -0.062753
 H     4.236289    -2.471209    -0.859171
 H     4.889529    -0.870817    -0.525502
 C     5.243987    -2.304559     1.037122
 H     4.665435    -3.098378     1.546431
 C     6.485604    -2.945020     0.427275
 H     6.220917    -3.735346    -0.292581
 H     7.128481    -3.394337     1.199981
 H     7.088522    -2.193629    -0.109971
 C     5.631586    -1.260954     2.079476
 H     6.261401    -1.702143     2.867260
 H     4.755348    -0.814529     2.572759
 H     6.206656    -0.442320     1.614092
 H    -1.146340    -0.715239     2.985347
 C    -3.185243    -1.320918     3.184581
 H    -3.025134    -1.938789     4.083087
 H    -3.515450    -0.331194     3.529585
 H    -4.011380    -1.776842     2.619257
 C    -1.335810    -2.648272     2.104374
 H    -0.397777    -2.592145     1.533552
 H    -1.131461    -3.169475     3.052951
 H    -2.050246    -3.266228     1.536900
 H    -2.703526     1.739888     1.921901
 H    -4.030991     0.597542     1.682586
 C    -3.656802     1.875419    -0.020515
 H    -2.808718     2.409318    -0.473155
 H    -4.038357     1.196486    -0.803755
 C    -4.758436     2.889925     0.302516
 H    -4.395497     3.522913     1.134279
 C    -5.007424     3.792326    -0.900686
 H    -4.089161     4.317086    -1.206506
 H    -5.775746     4.550887    -0.684682
 H    -5.356242     3.202312    -1.764991
 C    -6.052816     2.218638     0.749605
 H    -6.830169     2.964515     0.976522
 H    -5.916513     1.603971     1.652236
 H    -6.444908     1.562381    -0.046326
 H    -2.137882    -2.140663    -0.627697
 H    -2.716941    -0.678721    -1.378541
 C    -4.226573    -1.715479    -0.198514
 H    -4.233207    -2.482018     0.593549
 H    -4.833259    -0.877862     0.188813
 C    -4.935528    -2.284890    -1.432559
 H    -4.273866    -3.055550    -1.871360
 C    -6.242116    -2.959269    -1.030430
 H    -6.071893    -3.768797    -0.303526
 H    -6.758508    -3.391397    -1.901612
 H    -6.928731    -2.232490    -0.564450
 C    -5.185317    -1.217901    -2.493317
 H    -5.670222    -1.647668    -3.383329
 H    -4.255499    -0.734317    -2.828624
 H    -5.849560    -0.428922    -2.101415
