  66
scf done:    -3262.239337
 C    -0.736623    -2.845188     1.205664
 H    -1.466041    -2.833900     2.021268
 H    -1.099547    -3.328918     0.295372
 C     0.642699    -2.801077     1.488837
 H     0.983681    -2.769248     2.529014
 H     1.352025    -3.280887     0.808796
 H     0.253149    -1.507610    -0.575666
Co    -0.010957    -1.004234     0.797814
 O    -1.457455     0.371896    -1.767057
 O    -2.903145    -1.197989    -0.391957
 O    -2.427248     1.112391     0.352276
 O     2.468823     0.947684     1.519816
 O     3.049196    -0.625963    -0.253958
 O     1.443684     1.313757    -0.691248
 P     1.699673     0.090226     0.348229
 P    -1.642028    -0.195265    -0.230511
 C    -0.350012    -0.318644     2.373893
 O    -0.574994     0.133459     3.404311
 C    -0.690800    -0.304031    -2.730949
 H     0.384577    -0.192500    -2.525108
 H    -0.940015    -1.377345    -2.781188
 H    -0.915043     0.154757    -3.704726
 C    -4.130912    -0.795552    -1.021708
 H    -3.960918     0.164454    -1.536649
 C    -5.182408    -0.611492     0.052561
 H    -4.858263     0.161253     0.762648
 H    -5.336671    -1.552958     0.601972
 H    -6.141776    -0.304331    -0.391083
 C    -4.484271    -1.856858    -2.041787
 H    -3.692717    -1.943745    -2.800353
 H    -4.600767    -2.835354    -1.551011
 H    -5.427096    -1.607384    -2.551400
 C    -1.718091     2.313731     0.680644
 H    -0.660386     2.053018     0.867468
 C    -2.330157     2.862885     1.950986
 H    -2.250494     2.130841     2.766356
 H    -3.394498     3.095500     1.791428
 H    -1.815035     3.784905     2.258956
 C    -1.782054     3.278302    -0.486967
 H    -1.317403     2.829449    -1.374584
 H    -2.829512     3.521358    -0.723748
 H    -1.255689     4.212912    -0.240563
 C     3.097223     0.249429     2.569629
 H     2.416384    -0.487987     3.028987
 H     3.996744    -0.276118     2.210386
 H     3.385507     0.985935     3.331638
 C     3.057055    -1.823289    -1.027384
 H     2.053783    -2.280328    -0.963002
 C     4.077304    -2.759580    -0.414315
 H     3.819587    -2.972690     0.633226
 H     5.079361    -2.303894    -0.437745
 H     4.114410    -3.711880    -0.963955
 C     3.352940    -1.481571    -2.474457
 H     2.571925    -0.826945    -2.887177
 H     4.319653    -0.961471    -2.558546
 H     3.393243    -2.393495    -3.088760
 C     2.462000     2.252987    -1.073332
 H     3.444353     1.821500    -0.818203
 C     2.256266     3.540130    -0.300664
 H     2.309991     3.343122     0.778116
 H     1.270748     3.970852    -0.534874
 H     3.029313     4.277528    -0.565183
 C     2.362681     2.437943    -2.572657
 H     2.547016     1.490250    -3.097885
 H     1.357871     2.795958    -2.845128
 H     3.101784     3.174655    -2.921270
