 102
scf done:    -3884.938394
 C    -0.516742    -1.029245     3.446683
 H    -1.189852    -0.499021     4.129931
 H    -0.841592    -2.051115     3.221895
 C     0.871984    -0.743987     3.476144
 H     1.256062     0.006404     4.176375
 H     1.582930    -1.548478     3.259495
 H     0.371619    -1.291834     1.196575
Co     0.035313     0.010294     1.816848
 O    -1.212370    -0.039721    -1.067646
 C    -2.395797    -1.943250     0.600976
 C    -3.099358     0.918279     0.785655
 O     1.485719     2.264312     0.258039
 C     3.314983     0.572682     1.544249
 C     1.957616     0.020840    -1.088080
 P     1.685260     0.654420     0.634063
 P    -1.637669    -0.225338     0.522846
 C    -0.304221     1.593934     2.478767
 O    -0.516848     2.638142     2.910955
 C    -1.921230    -0.431219    -2.250504
 H    -2.986719    -0.562759    -2.003153
 C    -1.344128    -1.726176    -2.796331
 H    -1.419659    -2.558808    -2.084266
 H    -0.278653    -1.600479    -3.040247
 H    -1.876339    -2.018617    -3.714244
 C    -1.787823     0.689056    -3.261463
 H    -2.234316     1.615284    -2.882400
 H    -0.724789     0.871682    -3.483789
 H    -2.295139     0.418518    -4.199300
 H    -1.842861    -2.525200    -0.149386
 H    -2.058008    -2.315414     1.576357
 C    -3.874007    -2.121483     0.444670
 C    -4.430108    -2.445673    -0.798621
 H    -3.766399    -2.612986    -1.649429
 C    -4.733513    -1.962007     1.555111
 C    -4.188441    -1.727359     2.935700
 H    -3.448785    -0.913499     2.973342
 H    -3.674308    -2.627466     3.312149
 H    -4.994205    -1.486040     3.642176
 C    -5.805933    -2.563721    -0.974426
 H    -6.210787    -2.813875    -1.957723
 C    -6.114852    -2.069772     1.359423
 H    -6.779916    -1.932270     2.216394
 C    -6.656294    -2.357580     0.108682
 H    -7.739072    -2.434591    -0.013878
 H    -3.885444     0.317417     1.261224
 H    -2.749283     1.639180     1.536879
 C    -3.687843     1.643105    -0.386737
 C    -4.854279     1.157910    -0.989458
 H    -5.303331     0.236646    -0.608972
 C    -3.107227     2.836593    -0.863554
 C    -1.841452     3.373050    -0.267055
 H    -1.014580     2.648732    -0.337035
 H    -1.958216     3.612808     0.801795
 H    -1.526542     4.292533    -0.779767
 C    -5.447108     1.825465    -2.057742
 H    -6.354626     1.423896    -2.514759
 C    -3.730319     3.507415    -1.922178
 H    -3.287070     4.437833    -2.288051
 C    -4.884571     3.011368    -2.523838
 H    -5.344150     3.553276    -3.353939
 C     2.420229     3.318112     0.093860
 H     3.257793     3.169349     0.799689
 C     1.698852     4.593025     0.488303
 H     1.268547     4.488470     1.494049
 H     0.876786     4.798660    -0.213375
 H     2.388115     5.450468     0.479993
 C     2.969222     3.378572    -1.321069
 H     3.601694     2.510932    -1.556081
 H     2.140010     3.414930    -2.043765
 H     3.585476     4.280827    -1.453565
 H     3.357588     1.531671     2.086380
 H     3.114206    -0.181560     2.314286
 C     4.617544     0.281701     0.859521
 C     5.415912     1.317589     0.357511
 H     5.073735     2.349881     0.456326
 C     5.091819    -1.046024     0.772445
 C     4.323014    -2.192325     1.359354
 H     3.283854    -2.221082     1.001344
 H     4.289453    -2.125440     2.459867
 H     4.788052    -3.151358     1.095799
 C     6.648348     1.068895    -0.241386
 H     7.249108     1.899279    -0.619448
 C     6.326534    -1.280196     0.157752
 H     6.685282    -2.310167     0.082426
 C     7.103615    -0.242213    -0.349548
 H     8.065022    -0.457893    -0.821563
 H     0.967402     0.225193    -1.526936
 H     2.672184     0.713016    -1.543890
 C     2.359521    -1.401758    -1.350801
 C     1.550176    -2.461611    -0.922912
 H     0.633418    -2.226177    -0.383292
 C     3.529393    -1.695244    -2.085335
 C     4.386840    -0.613189    -2.673730
 H     4.766434     0.077473    -1.907168
 H     3.824303    -0.014124    -3.408871
 H     5.256672    -1.041836    -3.189066
 C     1.901666    -3.789340    -1.146952
 H     1.253299    -4.592476    -0.788348
 C     3.872428    -3.035505    -2.296448
 H     4.785565    -3.259672    -2.854781
 C     3.080964    -4.080337    -1.826248
 H     3.378247    -5.116384    -2.005907
