  90
scf done:    -3727.807912
 C     1.046667    -2.082021    -3.094050
 H     1.859314    -1.635371    -3.677927
 H     1.299129    -3.059093    -2.669340
 C    -0.300097    -1.808913    -3.450597
 H    -0.509400    -1.162148    -4.310053
 H    -1.062065    -2.579927    -3.292865
 H    -0.321625    -2.061146    -1.106853
Co     0.196188    -0.837180    -1.764994
 O     1.646083    -1.963848     0.943642
 C     3.421742    -0.857965    -0.895176
 C     1.754905     0.614469     0.976402
 O    -1.482985     1.383660    -0.320005
 C    -3.090602    -0.413513    -1.814513
 C    -1.920408    -1.124977     0.812822
 P    -1.555806    -0.203052    -0.769601
 P     1.696636    -0.782944    -0.238991
 C     0.512800     0.641302    -2.656308
 O     0.632351     1.575455    -3.313381
 C     1.259100    -3.315868     0.727114
 H     0.417094    -3.318813     0.008797
 C     0.785527    -3.848612     2.064511
 H    -0.039989    -3.237843     2.458274
 H     1.604863    -3.829868     2.799842
 H     0.432602    -4.885787     1.965442
 C     2.397248    -4.132143     0.141531
 H     2.684248    -3.760119    -0.851922
 H     3.283813    -4.099680     0.793368
 H     2.091759    -5.182890     0.026233
 H     3.431563    -0.085767    -1.681644
 H     3.470321    -1.816969    -1.436947
 C     4.608143    -0.683925     0.010330
 C     4.677144    -1.258559     1.286206
 H     3.833623    -1.846477     1.650398
 C     5.695106     0.082894    -0.430106
 H     5.651571     0.550911    -1.417124
 C     5.792648    -1.057505     2.098468
 H     5.821566    -1.506625     3.094489
 C     6.812866     0.278263     0.376200
 H     7.645188     0.884976     0.010924
 C     6.864662    -0.288548     1.649286
 H     7.737156    -0.131578     2.287952
 H     2.345861     0.260217     1.833151
 H     0.713814     0.749142     1.306704
 C     2.303842     1.901946     0.437298
 C     1.527496     2.712161    -0.400890
 H     0.502492     2.409938    -0.621556
 C     3.601908     2.318728     0.757772
 H     4.214172     1.709107     1.426001
 C     2.047112     3.890455    -0.931628
 H     1.429036     4.501481    -1.594239
 C     4.119228     3.501083     0.232934
 H     5.135320     3.807005     0.494261
 C     3.347136     4.287282    -0.621338
 H     3.755292     5.211582    -1.037605
 C    -2.526569     2.317535    -0.029137
 H    -3.453132     1.767280     0.197315
 C    -2.731529     3.202129    -1.245720
 H    -2.987449     2.612294    -2.137714
 H    -1.808173     3.758147    -1.469114
 H    -3.539324     3.928445    -1.068868
 C    -2.115253     3.109581     1.194002
 H    -1.992313     2.449116     2.061722
 H    -1.161542     3.627375     1.009295
 H    -2.880025     3.862418     1.436672
 H    -2.846475    -1.336557    -2.361295
 H    -3.031318     0.395405    -2.558950
 C    -4.455841    -0.523074    -1.209457
 C    -5.313128     0.580143    -1.101887
 H    -4.999135     1.546482    -1.502133
 C    -4.915788    -1.760503    -0.736130
 H    -4.285542    -2.646659    -0.852960
 C    -6.561888     0.462895    -0.495878
 H    -7.209752     1.339482    -0.419737
 C    -6.163562    -1.882384    -0.128616
 H    -6.494521    -2.856593     0.238776
 C    -6.988158    -0.766554     0.005799
 H    -7.965674    -0.857811     0.484556
 H    -0.957822    -1.595604     1.048715
 H    -2.613982    -1.937295     0.545987
 C    -2.399434    -0.369600     2.015238
 C    -3.737369     0.009147     2.185967
 H    -4.476199    -0.251893     1.426805
 C    -1.483917    -0.045553     3.025585
 H    -0.441614    -0.357954     2.919129
 C    -4.138296     0.712710     3.319191
 H    -5.186878     1.000021     3.429135
 C    -1.883946     0.655046     4.162047
 H    -1.150748     0.897134     4.935108
 C    -3.213979     1.043804     4.310030
 H    -3.531326     1.596037     5.197644
