  78
scf done:    -3570.666559
 C     0.229701    -2.433566     2.579087
 H     0.722156    -3.392527     2.385510
 H     0.654549    -1.873055     3.415894
 C    -1.115071    -2.252826     2.202540
 H    -1.662181    -3.057871     1.700616
 H    -1.750698    -1.562918     2.765857
 H    -0.033338    -0.113717     1.878680
Co     0.117282    -1.254128     0.940347
 O     2.682094    -0.321890     2.482732
 C     3.360754    -0.873960    -0.078321
 C     1.925872     1.513513     0.634789
 O    -0.756375    -0.013398    -1.818577
 C    -2.780558    -1.346987    -0.612646
 C    -2.099303     1.312988     0.172827
 P    -1.325808    -0.289896    -0.271778
 P     1.977860    -0.283004     0.978243
 C     0.414925    -2.535825    -0.221779
 O     0.607790    -3.364791    -0.992731
 C     4.053927    -0.069194     2.675678
 H     4.673950    -0.901620     2.304121
 H     4.387714     0.856340     2.175143
 H     4.214754     0.037317     3.758473
 C     3.639229    -2.246162    -0.042304
 H     3.025472    -2.908633     0.573347
 C     4.159336    -0.038152    -0.864443
 H     3.959972     1.036289    -0.883833
 C     4.699408    -2.761249    -0.781397
 H     4.917979    -3.831263    -0.746072
 C     5.216524    -0.544938    -1.628957
 C     6.034002     0.361852    -2.502916
 H     6.001888     1.401205    -2.145933
 H     7.086287     0.043967    -2.543386
 H     5.652514     0.358403    -3.537754
 C     5.477556    -1.918266    -1.572462
 H     6.304361    -2.332925    -2.156221
 C     2.114858     2.446326     1.657242
 H     2.392420     2.106896     2.656837
 C     1.507770     1.952424    -0.627653
 H     1.301109     1.216260    -1.409443
 C     1.912332     3.802996     1.402462
 H     2.065386     4.533475     2.201094
 C     1.285234     3.305733    -0.889185
 C     0.760156     3.756100    -2.220702
 H     1.257147     4.675775    -2.564479
 H     0.894261     2.982412    -2.989399
 H    -0.318907     3.974140    -2.152057
 C     1.503969     4.228625     0.142559
 H     1.333429     5.292865    -0.043009
 C    -1.499210     0.628349    -2.824462
 H    -2.478625     0.146214    -2.988344
 H    -1.666350     1.692888    -2.590638
 H    -0.916187     0.557505    -3.754482
 C    -2.731751    -2.263916    -1.669366
 H    -1.870912    -2.271695    -2.342027
 C    -3.870930    -1.369193     0.262859
 H    -3.906369    -0.660976     1.096040
 C    -3.775900    -3.167183    -1.849539
 H    -3.742028    -3.876742    -2.680006
 C    -4.920897    -2.278114     0.098734
 C    -6.063417    -2.308353     1.072251
 H    -5.815269    -2.932932     1.946652
 H    -6.298588    -1.302088     1.448854
 H    -6.972407    -2.727032     0.616885
 C    -4.861240    -3.173258    -0.975927
 H    -5.675937    -3.887032    -1.126508
 C    -1.441895     2.161975     1.065037
 H    -0.520507     1.828141     1.544080
 C    -3.294639     1.745651    -0.422221
 H    -3.831670     1.079140    -1.102051
 C    -1.961971     3.425787     1.338356
 H    -1.435584     4.085550     2.031863
 C    -3.831717     3.006536    -0.154441
 C    -5.113941     3.455553    -0.794224
 H    -4.963263     4.365927    -1.396220
 H    -5.527098     2.679694    -1.453799
 H    -5.876373     3.693853    -0.035634
 C    -3.142028     3.844633     0.733056
 H    -3.545047     4.836974     0.956402
