  60
scf done:    -3183.636337
 C     1.796397    -1.860954    -1.033992
 H     2.085910    -1.656050    -2.069380
 H     2.629722    -1.855976    -0.328933
 C     0.656405    -2.638950    -0.763461
 H     0.072965    -3.042147    -1.596277
 H     0.604446    -3.233716     0.153353
 H     0.817241    -0.937475     0.969421
Co     0.294474    -0.671232    -0.389787
 O     2.909194     1.225221    -0.313887
 O     0.768208     2.393877    -0.772770
 O     1.402003     1.662348     1.575643
 O    -2.305701     0.477566     1.197448
 O    -2.833456    -1.527647    -0.089232
 O    -1.441602    -1.669076     2.032937
 P    -1.517188    -0.840925     0.633881
 P     1.320513     1.085106     0.041494
 C    -0.307637    -0.215368    -1.978429
 O    -0.702186     0.087905    -3.011257
 C     3.996018     1.234307     0.599704
 H     4.719518     1.965315     0.200930
 H     3.653684     1.597019     1.579863
 C     4.644057    -0.128673     0.724478
 H     5.436622    -0.059828     1.490810
 H     3.898019    -0.839348     1.122778
 C     5.224694    -0.651844    -0.581402
 H     6.021427     0.035283    -0.917960
 H     4.442765    -0.608166    -1.356365
 C     5.772021    -2.065082    -0.473448
 H     6.561965    -2.135130     0.292057
 H     4.979068    -2.777765    -0.194623
 H     6.201511    -2.407020    -1.427204
 C     1.397702     3.653748    -0.668487
 H     1.448357     3.987096     0.380510
 H     2.417149     3.617146    -1.083054
 H     0.795952     4.367295    -1.247188
 C     0.533544     1.301462     2.624967
 H    -0.442924     1.799902     2.530401
 H     0.364761     0.213540     2.657408
 H     1.011094     1.620044     3.562233
 C    -2.450602     1.651154     0.404784
 H    -2.762847     2.436491     1.111634
 H    -1.472468     1.942523    -0.014340
 C    -3.472449     1.504446    -0.705338
 H    -3.521649     2.471160    -1.237393
 H    -3.104331     0.772936    -1.444157
 C    -4.855473     1.092027    -0.225673
 H    -5.239313     1.853017     0.477475
 H    -4.755789     0.158831     0.350088
 C    -5.842065     0.892142    -1.363782
 H    -5.968742     1.812032    -1.957764
 H    -5.494728     0.103795    -2.051110
 H    -6.835509     0.595903    -0.993801
 C    -2.717155    -2.630803    -0.954972
 H    -2.168821    -2.369051    -1.874222
 H    -2.211685    -3.483307    -0.472627
 H    -3.737308    -2.934077    -1.229096
 C    -2.577539    -1.825395     2.861746
 H    -2.856548    -0.868807     3.328862
 H    -3.438713    -2.203757     2.289245
 H    -2.310669    -2.552013     3.640834
