  80
scf done:    -3197.088490
 C     1.386838    -3.497546     0.062645
 H     1.205426    -4.007020     1.015747
 H     0.907748    -3.986140    -0.791826
 C     2.608813    -2.808773    -0.127612
 H     3.347021    -2.808775     0.681710
 H     3.057962    -2.760592    -1.124321
 H     0.939492    -1.613226    -1.371403
Co     1.081669    -1.509355     0.100998
 O    -1.237906    -0.260944    -1.498982
 C    -1.759741    -2.915010    -1.039790
 C    -2.183026    -0.813699     1.086883
 O     0.601254     1.564995     0.299167
 C     3.328594     1.103367     0.346709
 C     1.643130     0.934548    -2.161081
 P     1.706694     0.494630    -0.357113
 P    -1.027878    -1.376553    -0.279861
 C     1.344467    -1.295149     1.815423
 O     1.611580    -1.127995     2.924686
 C    -2.328622     0.521560    -1.923849
 H    -2.160798     0.706199    -2.999683
 H    -3.282600    -0.026218    -1.853543
 C    -2.417312     1.850788    -1.200750
 H    -2.629401     1.677233    -0.133575
 H    -1.423576     2.323809    -1.233273
 C    -3.473099     2.776955    -1.783385
 H    -4.458588     2.277805    -1.756842
 H    -3.257297     2.954054    -2.852118
 C    -3.556400     4.107024    -1.051536
 H    -3.808249     3.961520     0.011372
 H    -2.593158     4.640870    -1.088601
 H    -4.321114     4.767152    -1.487789
 H    -0.904192    -3.249439    -1.649970
 C    -2.024598    -3.987471     0.011050
 H    -2.160168    -4.967317    -0.473953
 H    -1.190672    -4.078971     0.721429
 H    -2.941735    -3.777801     0.582378
 C    -2.939362    -2.731111    -1.985956
 H    -2.698069    -2.034449    -2.800224
 H    -3.192664    -3.699746    -2.447732
 H    -3.843524    -2.370545    -1.474287
 H    -1.832679     0.227197     1.204220
 C    -3.687694    -0.804312     0.826500
 H    -4.202418    -0.338937     1.683426
 H    -3.982345    -0.244754    -0.069034
 H    -4.085568    -1.825559     0.732666
 C    -1.909726    -1.532509     2.407115
 H    -0.846559    -1.557260     2.667977
 H    -2.438542    -1.011409     3.221169
 H    -2.275675    -2.568874     2.390785
 C     0.781122     2.801900     0.948298
 H     1.729202     2.822899     1.513153
 H     0.821999     3.622851     0.207931
 C    -0.373105     3.013754     1.907376
 H    -0.306070     4.037772     2.314811
 H    -1.314490     2.970184     1.333904
 C    -0.403881     1.994427     3.037003
 H     0.481326     2.137445     3.681318
 H    -0.292173     0.988817     2.603820
 C    -1.670299     2.057016     3.873150
 H    -1.808665     3.050945     4.328869
 H    -2.562038     1.853577     3.256918
 H    -1.653900     1.316453     4.686894
 H     3.065061     1.228177     1.414146
 C     4.409445     0.028424     0.284765
 H     5.322392     0.392402     0.782950
 H     4.087375    -0.894913     0.777467
 H     4.675317    -0.225459    -0.752246
 C     3.867946     2.429271    -0.182953
 H     3.127648     3.239156    -0.182812
 H     4.718203     2.756422     0.437695
 H     4.243997     2.319803    -1.210856
 H     0.699280     0.427046    -2.418339
 C     1.485414     2.406749    -2.515939
 H     1.220611     2.499833    -3.582152
 H     0.676782     2.874527    -1.936542
 H     2.403665     2.988843    -2.359045
 C     2.768321     0.249911    -2.927905
 H     2.849380    -0.811710    -2.649755
 H     2.573505     0.298960    -4.011167
 H     3.743459     0.729470    -2.749935
