  84
scf done:    -4045.998932
 C    -0.362019    -3.542083    -0.453231
 H    -1.062243    -3.988453     0.260514
 H    -0.731738    -3.525083    -1.482471
 C     1.021638    -3.571830    -0.201984
 H     1.393531    -4.065115     0.702906
 H     1.725969    -3.579124    -1.038898
 H     0.567422    -1.461060    -1.318509
Co     0.275333    -1.707616     0.121319
 O    -1.514004     0.134653    -1.743973
 C    -2.999969    -1.755004    -0.509098
 C    -2.162012     0.561701     0.892673
 O     2.266106     0.563634     1.401412
 C     3.531417    -0.907121    -0.459233
 C     1.652052     1.128860    -1.066232
 P     1.862448    -0.317464     0.032628
 P    -1.537017    -0.677651    -0.307250
 C     0.021485    -1.906613     1.840749
 O    -0.174059    -2.028849     2.967955
 C    -2.476944     1.100945    -2.135934
 H    -2.592825     0.988632    -3.227327
 H    -3.463533     0.884568    -1.688505
 C    -2.018024     2.506027    -1.808410
 H    -1.950961     2.628497    -0.715780
 H    -0.993566     2.616527    -2.191392
 C    -2.906226     3.591019    -2.396198
 H    -3.918972     3.522337    -1.960485
 H    -3.031586     3.417168    -3.480146
 C    -2.337731     4.983450    -2.170038
 H    -2.218728     5.193049    -1.094879
 H    -1.344511     5.080916    -2.637035
 H    -2.986959     5.764525    -2.593407
 C    -3.584566    -2.361791     0.610930
 H    -3.224480    -2.117711     1.614561
 C    -3.457767    -2.101287    -1.783784
 H    -2.987762    -1.654041    -2.662489
 C    -4.622301    -3.275653     0.465250
 H    -5.091426    -3.753451     1.327202
 C    -4.497449    -3.015174    -1.944308
 H    -4.869396    -3.293103    -2.932149
 C    -5.067675    -3.588588    -0.815535
 F    -6.061750    -4.461511    -0.960128
 C    -3.519355     0.890708     1.020189
 H    -4.271566     0.334830     0.456019
 C    -1.222681     1.267913     1.655282
 H    -0.162903     1.010449     1.583205
 C    -3.930943     1.917625     1.863433
 H    -4.983449     2.185468     1.971781
 C    -1.619768     2.297597     2.502443
 H    -0.900774     2.855876     3.103979
 C    -2.970152     2.613324     2.589190
 F    -3.355336     3.597089     3.395823
 C     2.851091    -0.094793     2.507114
 H     2.246109    -0.975539     2.789306
 H     3.857147    -0.460102     2.233763
 C     2.945873     0.865271     3.672428
 H     3.429887     0.328724     4.507113
 H     3.623570     1.693691     3.401572
 C     1.602327     1.421932     4.117862
 H     0.904624     0.586361     4.302988
 H     1.172087     1.990930     3.278726
 C     1.692629     2.309296     5.347688
 H     2.084306     1.754669     6.215489
 H     2.364335     3.165844     5.175473
 H     0.707366     2.710779     5.630452
 C     4.423274    -0.119769    -1.199238
 H     4.112002     0.861033    -1.564445
 C     3.962908    -2.153876     0.010571
 H     3.274951    -2.767866     0.594010
 C     5.708850    -0.572281    -1.480711
 H     6.411893     0.025449    -2.063732
 C     5.249164    -2.615022    -0.253003
 H     5.597456    -3.584308     0.108129
 C     6.104144    -1.816775    -1.003357
 F     7.331883    -2.252875    -1.270417
 C     1.778539     2.436796    -0.586509
 H     1.984754     2.597195     0.472144
 C     1.404080     0.926243    -2.429719
 H     1.281012    -0.089032    -2.813182
 C     1.653057     3.526250    -1.446618
 H     1.733763     4.553021    -1.085516
 C     1.305303     2.003133    -3.303434
 H     1.114353     1.861045    -4.368464
 C     1.423655     3.292619    -2.795131
 F     1.285829     4.330735    -3.620227
