 100
scf done:    -3734.555546
 C     0.667592    -0.108268    -3.063890
 H     0.327905    -0.893270    -3.749835
 H     0.353341     0.896773    -3.357520
 C     1.880718    -0.266255    -2.362898
 H     2.475852    -1.170294    -2.517422
 H     2.473226     0.611828    -2.098059
 H     0.433876     0.915986    -0.823312
Co     0.298537    -0.528769    -1.112728
 C    -2.187837     1.479533    -2.378433
 C    -2.869352    -1.278301    -2.065769
 C    -2.837426     0.416028     0.254259
 C    -0.050217    -0.766917     2.272476
 C     2.248869    -2.106336     1.279879
 C     2.201554     0.832215     1.435899
 P     1.176989    -0.625152     0.859116
 P    -1.793999     0.034438    -1.242318
 C     0.254813    -2.254600    -1.320470
 O     0.327759    -3.400065    -1.452888
 H    -1.963529     1.040987    -3.367618
 C    -3.651079     1.909654    -2.355636
 H    -3.840138     2.636015    -3.162384
 H    -4.354988     1.076576    -2.500451
 H    -3.901682     2.406774    -1.406134
 C    -1.281455     2.691591    -2.187218
 H    -0.228207     2.402065    -2.073472
 H    -1.367286     3.364469    -3.055668
 H    -1.568221     3.264230    -1.293587
 H    -3.592116    -0.768250    -2.718591
 H    -2.179442    -1.836272    -2.714154
 C    -3.600606    -2.196314    -1.133241
 C    -2.990896    -3.329374    -0.584181
 H    -1.975263    -3.598167    -0.876097
 C    -4.923364    -1.911727    -0.764822
 H    -5.423265    -1.045261    -1.210032
 C    -3.681076    -4.125762     0.328689
 H    -3.191295    -5.005934     0.752719
 C    -5.630092    -2.698730     0.146675
 C    -7.050413    -2.376052     0.511898
 H    -7.352049    -1.390054     0.131011
 H    -7.746550    -3.121787     0.094339
 H    -7.193450    -2.377826     1.603520
 C    -4.984123    -3.811568     0.700397
 H    -5.514498    -4.442028     1.419622
 H    -3.894419     0.347448    -0.037279
 H    -2.676686    -0.427156     0.946698
 C    -2.613715     1.724649     0.963694
 C    -1.343086     2.284981     1.135577
 H    -0.486015     1.790591     0.676658
 C    -3.711728     2.405608     1.502198
 H    -4.712701     1.983023     1.366666
 C    -1.184042     3.479891     1.831818
 H    -0.185377     3.909878     1.948805
 C    -3.573514     3.606513     2.206548
 C    -4.772425     4.290258     2.797853
 H    -5.678415     4.103260     2.203169
 H    -4.970657     3.923634     3.819061
 H    -4.624365     5.377776     2.864964
 C    -2.288992     4.137738     2.366305
 H    -2.156632     5.079178     2.906492
 H    -0.742724     0.066618     2.075847
 C    -0.830465    -2.070297     2.151864
 H    -1.690319    -2.071607     2.840636
 H    -1.217778    -2.216046     1.133668
 H    -0.209007    -2.943843     2.405234
 C     0.514512    -0.577784     3.674704
 H     0.988874     0.403842     3.812547
 H    -0.298804    -0.651554     4.414663
 H     1.253460    -1.352131     3.936710
 H     2.207900    -2.242523     2.370389
 H     1.743984    -2.969845     0.822174
 C     3.677220    -2.041768     0.841931
 C     4.044489    -2.319850    -0.479218
 H     3.279941    -2.625545    -1.194931
 C     4.678875    -1.687995     1.752962
 H     4.404452    -1.493567     2.794983
 C     5.373675    -2.211889    -0.874214
 H     5.649690    -2.426501    -1.909421
 C     6.021660    -1.575277     1.374554
 C     7.062560    -1.144153     2.366691
 H     6.842352    -1.525154     3.374758
 H     8.064350    -1.493757     2.079014
 H     7.105641    -0.044117     2.435920
 C     6.355804    -1.836776     0.041653
 H     7.398086    -1.755952    -0.278763
 H     1.484975     1.484240     1.958953
 H     2.918875     0.471286     2.187859
 C     2.896290     1.617899     0.364149
 C     4.179936     1.285344    -0.076937
 H     4.710727     0.446839     0.374009
 C     2.246187     2.702666    -0.237372
 H     1.251173     2.989650     0.110862
 C     4.776825     2.008458    -1.107420
 H     5.778461     1.732525    -1.446120
 C     2.822331     3.429261    -1.281887
 C     2.074943     4.552353    -1.941279
 H     1.211604     4.869625    -1.339268
 H     2.721468     5.427931    -2.105092
 H     1.691076     4.242358    -2.927255
 C     4.103756     3.065022    -1.713687
 H     4.576929     3.619016    -2.529327
