  92
scf done:    -3878.213035
 C    -0.977949     3.403573    -0.656851
 H    -1.966617     3.211203    -1.080915
 H    -0.976812     4.141983     0.151898
 C     0.171932     3.242068    -1.459986
 H     0.053833     2.945298    -2.507186
 H     1.063994     3.847101    -1.266557
 H    -0.891658     1.057287    -1.193801
Co    -0.022451     1.686775    -0.179138
 C     1.196206     0.036998    -2.891626
 O     2.970087     0.936651    -1.162213
 O     1.533682    -1.067305    -0.350677
 C    -1.117735     0.330436     2.752742
 O    -2.952023     0.975118     0.996024
 O    -1.448483    -1.019647     0.320236
 P    -1.346065     0.525401     0.933077
 P     1.378685     0.419028    -1.094981
 C     0.821071     2.439394     1.172358
 O     1.253938     2.985178     2.084192
 H     0.991195     1.052712    -3.275898
 C     2.425072    -0.504310    -3.614404
 H     2.250614    -0.461510    -4.701624
 H     3.323004     0.084339    -3.385880
 H     2.624646    -1.552504    -3.352033
 C    -0.042445    -0.818092    -3.138529
 H    -0.923537    -0.421129    -2.614849
 H    -0.267622    -0.843283    -4.215887
 H     0.116710    -1.853439    -2.805735
 C     3.528909     1.594938    -0.101724
 C     3.939276     2.915613    -0.272584
 H     3.794368     3.389225    -1.245267
 C     3.704356     0.964705     1.131494
 H     3.376618    -0.067887     1.262325
 C     4.510705     3.603729     0.792802
 H     4.822807     4.642179     0.651333
 C     4.277025     1.668126     2.187091
 H     4.400489     1.169349     3.152291
 C     4.681669     2.999365     2.044212
 C     5.240761     3.767859     3.205585
 H     5.937545     4.551874     2.875203
 H     5.773562     3.109846     3.907403
 H     4.432321     4.262880     3.769443
 C     2.244148    -2.159834    -0.767938
 C     3.637241    -2.145364    -0.863175
 H     4.185336    -1.226007    -0.658183
 C     1.544443    -3.334109    -1.048358
 H     0.456191    -3.330545    -0.966303
 C     4.310934    -3.299275    -1.253789
 H     5.401212    -3.271892    -1.335467
 C     2.234867    -4.479686    -1.433617
 H     1.671923    -5.390503    -1.656382
 C     3.629967    -4.486993    -1.545976
 C     4.373276    -5.732172    -1.934532
 H     4.683505    -6.304063    -1.043718
 H     5.284987    -5.496840    -2.502997
 H     3.750634    -6.398199    -2.549286
 H    -1.009800     1.394151     3.037609
 C    -2.271850    -0.257447     3.556215
 H    -2.083275    -0.097538     4.630113
 H    -3.226836     0.219258     3.298963
 H    -2.373219    -1.339575     3.394741
 C     0.210719    -0.367917     3.032234
 H     1.025608     0.020838     2.405177
 H     0.494683    -0.226603     4.086253
 H     0.132164    -1.448278     2.846623
 C    -3.674820     1.408502    -0.077208
 C    -4.493869     2.524818     0.100905
 H    -4.500838     3.018089     1.074553
 C    -3.645341     0.759887    -1.312012
 H    -3.017421    -0.121274    -1.448845
 C    -5.263355     2.994912    -0.955744
 H    -5.895845     3.874300    -0.804265
 C    -4.417326     1.251685    -2.363945
 H    -4.379022     0.741444    -3.330353
 C    -5.236417     2.373398    -2.212509
 C    -6.067009     2.898945    -3.347479
 H    -5.903490     2.319371    -4.266813
 H    -5.826200     3.951392    -3.566363
 H    -7.142487     2.856292    -3.111151
 C    -2.108648    -2.088597     0.862712
 C    -3.502749    -2.140767     0.912097
 H    -4.090821    -1.297965     0.548425
 C    -1.356900    -3.169013     1.324032
 H    -0.268452    -3.114277     1.269379
 C    -4.127804    -3.263560     1.446392
 H    -5.220282    -3.289318     1.490508
 C    -1.999159    -4.285959     1.851565
 H    -1.397676    -5.123178     2.216646
 C    -3.394801    -4.355385     1.927786
 C    -4.086032    -5.570774     2.474661
 H    -4.993389    -5.300664     3.034930
 H    -3.428014    -6.140734     3.146204
 H    -4.395567    -6.250702     1.663145
