  96
scf done:    -3806.361913
 C     0.958515     1.648853    -2.350801
 H     0.554790     1.483724    -3.356081
 H     0.551949     2.526190    -1.837030
 C     2.255904     1.202446    -2.038655
 H     2.844542     0.695491    -2.808878
 H     2.853836     1.734954    -1.296544
 H     0.840933     0.915461    -0.033536
Co     0.859578    -0.006377    -1.180577
 O    -1.479018     1.657625    -0.008743
 C    -2.231763     0.444832    -2.409895
 C    -2.086980    -1.035996     0.152896
 O     0.712131    -1.885148     1.292883
 C     3.033635    -2.409691     0.009118
 C     2.689363    -0.076076     1.716924
 P     1.822581    -1.038125     0.370062
 P    -1.212057     0.262758    -0.849241
 C     0.819091    -1.289328    -2.364698
 O     0.787156    -2.172523    -3.105515
 C    -2.644618     2.454842     0.017017
 H    -2.823629     2.880902    -0.988348
 H    -3.528795     1.860093     0.298733
 C    -2.410595     3.573715     1.009043
 H    -3.331968     4.178356     1.074852
 H    -2.262963     3.122462     2.005142
 C    -1.219653     4.452795     0.652608
 H    -1.412646     4.948025    -0.316000
 H    -0.345215     3.802618     0.488192
 C    -0.901594     5.495565     1.710919
 H    -1.757127     6.167067     1.889893
 H    -0.650626     5.021326     2.673683
 H    -0.045488     6.122815     1.418056
 H    -1.643617    -0.108616    -3.156592
 H    -2.146951     1.506520    -2.688976
 C    -3.652424    -0.029003    -2.434275
 C    -4.733935     0.828353    -2.198224
 H    -4.549961     1.887009    -2.006500
 C    -3.928830    -1.376796    -2.708275
 H    -3.101367    -2.057745    -2.928994
 C    -6.043141     0.352952    -2.208899
 H    -6.869318     1.042643    -2.020212
 C    -5.236249    -1.857446    -2.716216
 H    -5.424539    -2.912029    -2.931449
 C    -6.300879    -0.993951    -2.459334
 H    -7.327442    -1.367395    -2.465786
 H    -1.253848    -1.508584     0.689621
 H    -2.486046    -1.775044    -0.557529
 C    -3.129164    -0.575016     1.119801
 C    -4.497092    -0.747857     0.879212
 H    -4.823444    -1.247063    -0.035567
 C    -2.733697     0.063411     2.304571
 H    -1.667621     0.205150     2.498276
 C    -5.443792    -0.277667     1.787665
 H    -6.507031    -0.419133     1.578314
 C    -3.678440     0.535382     3.211513
 H    -3.350699     1.035244     4.126564
 C    -5.039929     0.371548     2.953499
 H    -5.782961     0.742522     3.663469
 C     0.970646    -2.613302     2.475402
 H     1.588299    -3.504317     2.254349
 H     1.531050    -1.995614     3.199752
 C    -0.355497    -3.037749     3.072868
 H    -0.166586    -3.478302     4.067258
 H    -0.960875    -2.131166     3.245697
 C    -1.136405    -4.018119     2.206903
 H    -0.594665    -4.980042     2.170673
 H    -1.152931    -3.642777     1.171349
 C    -2.559741    -4.234447     2.694118
 H    -2.579075    -4.609598     3.730362
 H    -3.130363    -3.292006     2.671472
 H    -3.095347    -4.963253     2.067157
 H     2.573112    -2.993288    -0.803545
 H     3.097683    -3.061527     0.893022
 C     4.399272    -1.928057    -0.368120
 C     5.469460    -2.040657     0.528347
 H     5.311122    -2.528114     1.494775
 C     4.629847    -1.316829    -1.606847
 H     3.806401    -1.229176    -2.317124
 C     6.732016    -1.545425     0.204603
 H     7.553766    -1.645915     0.917705
 C     5.886666    -0.813168    -1.929307
 H     6.042636    -0.330999    -2.897229
 C     6.942598    -0.921575    -1.023904
 H     7.929028    -0.527244    -1.278781
 H     3.490686    -0.692715     2.151461
 H     1.906653     0.046650     2.482349
 C     3.205412     1.271692     1.316326
 C     2.370251     2.394091     1.393602
 H     1.353010     2.283099     1.778069
 C     4.505234     1.438291     0.826286
 H     5.169391     0.575265     0.752546
 C     2.814550     3.645279     0.973071
 H     2.144008     4.505835     1.035508
 C     4.952904     2.690323     0.410258
 H     5.969124     2.796145     0.022994
 C     4.108270     3.797427     0.475310
 H     4.457225     4.777296     0.141097
