  90
scf done:    -3652.127824
 C     0.336242     1.781729     2.374842
 H     0.134404     1.592433     3.432825
 H     1.346813     2.155628     2.174915
 C    -0.709657     2.116357     1.494783
 H    -1.734760     2.205937     1.867565
 H    -0.496300     2.738671     0.621336
 H    -1.250487    -0.078870     2.221726
Co    -0.179629     0.171145     1.258287
 C     1.760422     2.138372    -0.754123
 O     2.960340     0.057854     0.201126
 O     1.095906    -0.344878    -1.563939
 C    -1.488273    -1.854118    -1.132934
 O    -3.226445    -0.380529     0.335795
 O    -1.875043     0.821176    -1.360155
 P    -1.654545    -0.295467    -0.173149
 P     1.407024     0.451472    -0.167543
 C     0.305089    -1.188617     2.193953
 O     0.487896    -2.096790     2.887522
 C     0.814042     2.746752    -1.590307
 C     2.885713     2.857662    -0.341944
 C     2.122789     4.776369    -1.598407
 C     3.063713     4.174582    -0.764558
 C     0.999044     4.060062    -2.012790
 H    -0.072694     2.182193    -1.892400
 H     0.257360     4.529583    -2.663659
 H     2.264527     5.809115    -1.926282
 H     3.944989     4.733673    -0.440853
 H     3.624108     2.373766     0.299862
 C     3.325920    -1.151976     0.846633
 H     2.432022    -1.675080     1.220791
 H     3.797474    -1.807700     0.095341
 C     4.289238    -0.865663     1.977649
 H     4.664054    -1.833252     2.355330
 H     5.165594    -0.335108     1.564617
 C     3.684147    -0.061088     3.119152
 H     2.831917    -0.618889     3.541622
 H     3.256448     0.869521     2.712789
 C     4.685289     0.265438     4.214377
 H     5.105227    -0.650150     4.661807
 H     5.529873     0.855778     3.822962
 H     4.220957     0.847218     5.024858
 C     1.890143    -0.298872    -2.739389
 H     1.179190    -0.401495    -3.575691
 H     2.379391     0.685546    -2.832734
 C     2.912446    -1.417408    -2.775724
 H     3.441769    -1.361592    -3.743547
 H     3.673827    -1.228010    -2.000771
 C     2.299995    -2.797285    -2.587080
 H     1.571524    -2.984246    -3.394995
 H     1.704355    -2.797368    -1.659895
 C     3.327649    -3.914882    -2.546547
 H     3.915652    -3.960867    -3.477728
 H     4.040801    -3.773420    -1.717668
 H     2.849381    -4.896207    -2.406010
 C    -1.093804    -3.018073    -0.463224
 C    -1.690267    -1.903388    -2.515965
 C    -1.165186    -4.262462    -2.531341
 C    -1.531126    -3.100845    -3.210493
 C    -0.944068    -4.218092    -1.155675
 H    -0.885895    -2.987120     0.609189
 H    -0.641140    -5.120082    -0.618582
 H    -1.039223    -5.200530    -3.077330
 H    -1.686696    -3.125671    -4.292009
 H    -1.951375    -0.992990    -3.057647
 C    -3.888811    -1.535993     0.815574
 H    -4.962458    -1.290258     0.771064
 H    -3.715884    -2.383713     0.129696
 C    -3.497645    -1.910434     2.231858
 H    -4.062093    -2.818417     2.508678
 H    -2.433422    -2.199310     2.254258
 C    -3.742895    -0.805737     3.249212
 H    -4.827051    -0.604322     3.314234
 H    -3.283148     0.122635     2.872224
 C    -3.183727    -1.132783     4.623371
 H    -3.628734    -2.054472     5.032459
 H    -2.093579    -1.286096     4.575305
 H    -3.375514    -0.322344     5.342746
 C    -3.118828     1.115396    -1.984360
 H    -2.882752     1.341670    -3.038639
 H    -3.780656     0.236096    -1.963304
 C    -3.797019     2.299012    -1.325234
 H    -4.770915     2.456400    -1.822750
 H    -4.018387     2.024480    -0.280498
 C    -2.974971     3.578743    -1.367856
 H    -2.788410     3.857103    -2.421324
 H    -1.986839     3.375820    -0.926956
 C    -3.630491     4.736872    -0.635016
 H    -4.617039     4.980925    -1.061807
 H    -3.782778     4.493545     0.428738
 H    -3.012531     5.646413    -0.680653
