  74
scf done:    -3044.339823
 C     0.628583    -3.404032     0.628671
 H     0.675376    -4.118174    -0.200781
 H     1.569424    -3.316630     1.181981
 C    -0.599001    -3.222686     1.312795
 H    -1.473979    -3.799598     0.991841
 H    -0.594708    -2.998370     2.383431
 H     0.581270    -1.128092     1.331913
Co    -0.173982    -1.620439     0.163050
 C     2.104142     0.896652     0.255905
 C     3.071485    -1.573635    -0.840088
 C     1.389294     0.149414    -2.430923
 C    -1.687494     1.433967    -0.177739
 C    -3.376365    -0.633073     0.869409
 C    -1.326300     0.589785     2.532638
 P    -1.591934    -0.131856     0.845015
 P     1.507966    -0.588215    -0.726309
 C    -1.118572    -2.209288    -1.184296
 O    -1.802076    -2.649659    -2.001723
 H     1.164563     1.425179     0.499669
 C     3.012006     1.888506    -0.474159
 H     2.551075     2.231697    -1.411529
 H     3.957281     1.388981    -0.754270
 C     3.322581     3.101920     0.401215
 H     3.999605     3.787304    -0.134426
 H     2.386002     3.663893     0.572175
 C     3.918317     2.704743     1.745699
 H     4.083404     3.596520     2.371998
 H     4.913002     2.251768     1.581770
 C     3.027991     1.698536     2.464277
 H     2.071493     2.181837     2.736467
 H     3.492361     1.377401     3.410737
 C     2.742858     0.486318     1.584982
 H     3.692900    -0.040016     1.386060
 H     2.089439    -0.228373     2.108683
 H     3.222326    -1.986285     0.169059
 C     3.049716    -2.699895    -1.861258
 H     3.099677    -2.317532    -2.891237
 H     2.134013    -3.301449    -1.765399
 H     3.912607    -0.886769    -1.036679
 H     3.910973    -3.370908    -1.720968
 H     2.408567     0.412820    -2.758698
 C     0.695663    -0.692980    -3.490099
 H    -0.360215    -0.869686    -3.248741
 H     1.162690    -1.678809    -3.615793
 H     0.849058     1.103743    -2.311113
 H     0.729202    -0.181728    -4.464935
 H    -0.634047     1.767822    -0.221400
 C    -2.506925     2.593152     0.391834
 H    -2.165528     2.856047     1.404273
 H    -3.565068     2.290687     0.485706
 C    -2.420911     3.823859    -0.509336
 H    -3.038965     4.637275    -0.095395
 H    -1.379704     4.195404    -0.508904
 C    -2.839404     3.510691    -1.940772
 H    -2.733144     4.404133    -2.577185
 H    -3.912160     3.245218    -1.954626
 C    -2.032145     2.349174    -2.507839
 H    -0.973462     2.654147    -2.602115
 H    -2.373181     2.098925    -3.525459
 C    -2.120137     1.120571    -1.609895
 H    -3.160816     0.751143    -1.607763
 H    -1.500778     0.304809    -2.007611
 H    -3.577272    -1.041930    -0.134079
 C    -3.752994    -1.657675     1.927672
 H    -3.675429    -1.241344     2.943143
 H    -3.105300    -2.543070     1.874843
 H    -3.998477     0.271147     0.976696
 H    -4.793609    -1.989754     1.790861
 H    -2.246227     1.118831     2.832028
 C    -0.880477    -0.374275     3.619166
 H     0.037233    -0.899601     3.317526
 H    -1.639743    -1.139366     3.833199
 H    -0.552270     1.364743     2.392905
 H    -0.677291     0.167718     4.555803
