  50
scf done:    -2879.980059
 C     1.967645    -3.116800    -0.299868
 H     2.182810    -3.315510    -1.356192
 H     2.858362    -3.121021     0.337622
 C     0.722979    -3.520938     0.245283
 H    -0.005703    -4.028585    -0.396727
 H     0.669572    -3.826018     1.295121
 H     1.349819    -1.482301     1.397485
Co     0.780132    -1.528576     0.017855
 C     1.564928     1.759358    -0.187764
 C     3.684599     0.041533     0.739785
 C     2.953897     0.080938    -2.000778
 C    -2.320389    -0.130413     0.394812
 C    -1.591228    -2.074680     2.321202
 C    -0.422890     0.495735     2.449630
 P    -0.829946    -0.809413     1.229847
 P     2.198567     0.038283    -0.326008
 C     0.015114    -1.477380    -1.552908
 O    -0.489402    -1.414535    -2.586060
 C     0.368836     2.058589    -0.856368
 C     2.168462     2.756451     0.587032
 C     0.405601     4.310157     0.015893
 C     1.588477     4.021268     0.693064
 C    -0.200040     3.325380    -0.765688
 H    -0.137658     1.283342    -1.437929
 H    -1.133535     3.535637    -1.293028
 H    -0.047004     5.301087     0.099983
 H     2.066949     4.785768     1.310290
 H     3.095505     2.551538     1.126092
 H     3.384200     0.185286     1.787028
 H     4.146182    -0.952660     0.657976
 H     4.419639     0.806879     0.448609
 H     3.679748     0.901032    -2.106441
 H     3.449685    -0.884147    -2.182658
 H     2.157780     0.201277    -2.749352
 C    -3.029795    -0.971790    -0.474291
 C    -2.744857     1.195720     0.536626
 C    -4.554086     0.818457    -1.022794
 C    -3.851544     1.666796    -0.170568
 C    -4.140653    -0.505983    -1.170449
 H    -2.700399    -2.004815    -0.618235
 H    -4.680882    -1.178049    -1.841472
 H    -5.421050     1.188258    -1.575407
 H    -4.165961     2.706724    -0.050407
 H    -2.206183     1.880408     1.193638
 H    -2.000724    -2.886988     1.705315
 H    -0.804394    -2.498904     2.961549
 H    -2.391666    -1.644834     2.941809
 H    -0.016487     1.380984     1.941107
 H    -1.296578     0.781987     3.053774
 H     0.359982     0.094015     3.108156
