 122
scf done:    -4569.121254
 C    -0.241787    -2.458939    -2.462248
 H    -0.129162    -3.493629    -2.123922
 H    -1.163325    -2.271902    -3.015881
 C     0.898723    -1.681846    -2.666488
 H     1.898639    -2.088174    -2.499956
 H     0.860698    -0.871446    -3.394773
 H    -0.047802     0.153480    -1.680232
Co    -0.003522    -1.118089    -0.907984
 C    -2.617236     0.857053    -1.849593
 C    -3.381393    -1.024656     0.201418
 C    -1.582885     1.045675     0.957893
 C     2.098639    -0.335474     1.883183
 C     3.440600    -0.915294    -0.548430
 C     1.897523     1.589816    -0.365513
 P     1.798787    -0.229099     0.034801
 P    -1.863005    -0.123124    -0.450441
 C    -0.259737    -2.504362     0.104484
 O    -0.548495    -3.443629     0.718025
 H    -1.859171     1.633219    -2.032960
 C    -3.960252     1.525035    -1.574867
 H    -3.899510     2.162564    -0.684234
 H    -4.708872     0.745835    -1.348069
 C    -4.433487     2.332236    -2.780326
 H    -5.411897     2.793424    -2.564859
 H    -3.729125     3.166038    -2.958372
 C    -4.514255     1.469629    -4.033378
 H    -4.826253     2.071907    -4.902880
 H    -5.294605     0.700062    -3.889904
 C    -3.181502     0.783747    -4.305738
 H    -2.425151     1.551295    -4.553265
 H    -3.256843     0.126838    -5.188159
 C    -2.693666    -0.015705    -3.101867
 H    -3.365432    -0.873598    -2.921756
 H    -1.697613    -0.430446    -3.303698
 C    -4.287659    -0.467736     1.135272
 O    -4.191331     0.852951     1.377241
 C    -4.925530     1.444892     2.406567
 H    -4.605182     2.493904     2.444451
 H    -6.012955     1.403133     2.217551
 H    -4.710987     0.977100     3.383144
 C    -3.610788    -2.366603    -0.167551
 O    -2.877056    -2.847674    -1.186007
 C    -2.933381    -4.211858    -1.492462
 H    -2.232859    -4.371987    -2.320189
 H    -3.943174    -4.518227    -1.817019
 H    -2.620758    -4.828978    -0.633276
 C    -4.575614    -3.157123     0.475777
 H    -4.707410    -4.202362     0.202330
 C    -5.256520    -1.248400     1.779923
 H    -5.926237    -0.803456     2.514453
 C    -5.376688    -2.593626     1.456996
 H    -6.127852    -3.206711     1.960854
 C    -1.555602     2.449075     0.890499
 O    -1.568760     3.008078    -0.336152
 C    -1.744680     4.386348    -0.476040
 H    -1.768169     4.587034    -1.554981
 H    -2.695193     4.724042    -0.025646
 H    -0.908339     4.953089    -0.034595
 C    -1.446177     0.456403     2.230371
 O    -1.403024    -0.889126     2.245080
 C    -1.718821    -1.606010     3.404394
 H    -1.735106    -2.662297     3.107873
 H    -2.712220    -1.320879     3.791808
 H    -0.963149    -1.470825     4.196468
 C    -1.406245     1.222117     3.399870
 H    -1.327732     0.740515     4.374362
 C    -1.548627     3.226370     2.057214
 H    -1.580454     4.313616     1.994968
 C    -1.486474     2.606003     3.299865
 H    -1.480076     3.215522     4.207040
 H     1.293227     0.280535     2.307950
 C     3.448873     0.233383     2.323233
 H     3.607559     1.237938     1.911469
 H     4.248740    -0.400471     1.902522
 C     3.581632     0.243979     3.842672
 H     4.565656     0.648251     4.134094
 H     2.824926     0.926157     4.270915
 C     3.382380    -1.149264     4.425028
 H     3.431988    -1.123921     5.526507
 H     4.209016    -1.801513     4.089424
 C     2.059589    -1.744007     3.959471
 H     1.232543    -1.144368     4.382579
 H     1.934898    -2.767311     4.351241
 C     1.938049    -1.750585     2.437683
 H     2.710011    -2.412560     2.013301
 H     0.970983    -2.172344     2.143635
 C     4.579512    -0.141359    -0.856593
 O     4.536279     1.163622    -0.531791
 C     5.510758     2.045838    -0.999428
 H     5.174994     3.052097    -0.715915
 H     6.498546     1.853332    -0.543779
 H     5.611885     2.000672    -2.098134
 C     3.552282    -2.308011    -0.743367
 O     2.518067    -3.057325    -0.318589
 C     2.461834    -4.422759    -0.614212
 H     1.503949    -4.779515    -0.215660
 H     3.282495    -4.982181    -0.131705
 H     2.492886    -4.603867    -1.702841
 C     4.685124    -2.885108    -1.334431
 H     4.737515    -3.960412    -1.498006
 C     5.715265    -0.707037    -1.450852
 H     6.576463    -0.087587    -1.698364
 C     5.750665    -2.073514    -1.697174
 H     6.636286    -2.517390    -2.158213
 C     1.694382     2.659194     0.525282
 O     1.482844     2.379242     1.829683
 C     1.706475     3.366010     2.792443
 H     1.603532     2.874939     3.768368
 H     2.721039     3.793378     2.702988
 H     0.963179     4.178189     2.740129
 C     2.112460     1.932353    -1.720240
 O     2.398848     0.906220    -2.538464
 C     2.639988     1.129571    -3.894540
 H     2.864819     0.149553    -4.333485
 H     3.503755     1.799646    -4.053647
 H     1.758095     1.557531    -4.402882
 C     2.092854     3.254362    -2.172811
 H     2.252606     3.483330    -3.225449
 C     1.713540     3.993564     0.085727
 H     1.569156     4.802865     0.800053
 C     1.897404     4.281608    -1.256990
 H     1.894664     5.320284    -1.596591
