  74
scf done:    -3194.229388
 C    -0.571292    -3.259111    -1.315930
 H    -1.145635    -3.975605    -0.718049
 H    -1.037923    -3.023673    -2.278246
 C     0.841744    -3.243611    -1.198762
 H     1.326217    -3.942627    -0.507437
 H     1.452055    -2.997289    -2.073325
 H     0.149716    -1.020962    -1.670541
Co     0.037303    -1.624676    -0.324570
 C    -1.422144     1.244504    -1.313380
 C    -3.204756    -0.959106    -1.065671
 C    -2.218658     0.345279     1.316151
 C     1.388916     0.872595     1.441386
 C     3.297514    -1.079269     0.707128
 C     2.272146     0.721657    -1.310433
 P     1.718783    -0.334519     0.090892
 P    -1.652057    -0.288914    -0.321697
 C    -0.172844    -2.300615     1.275583
 O    -0.336418    -2.733153     2.331426
 C    -1.370327     2.524948    -0.751998
 C    -1.211355     1.115637    -2.694684
 C    -0.896649     3.500580    -2.913892
 C    -0.958769     2.229811    -3.488468
 C    -1.103327     3.642853    -1.544405
 H    -1.515610     2.662590     0.319587
 H    -1.057551     4.632289    -1.082223
 H    -0.687907     4.375696    -3.533852
 H    -0.795961     2.104729    -4.561700
 H    -1.214232     0.121632    -3.149307
 H    -3.941056    -0.144533    -1.171139
 H    -2.936570    -1.283723    -2.084316
 C    -3.782281    -2.131367    -0.283797
 H    -4.097911    -1.790911     0.717135
 H    -2.983563    -2.870144    -0.113939
 C    -4.957914    -2.787341    -0.990556
 H    -5.778091    -2.070786    -1.158461
 H    -4.657899    -3.182618    -1.974203
 H    -5.362279    -3.626310    -0.403973
 H    -2.237397    -0.536608     1.978100
 H    -1.387054     0.959529     1.701741
 C    -3.542270     1.096013     1.398857
 H    -4.372565     0.403733     1.182917
 H    -3.593524     1.871213     0.616923
 C    -3.751673     1.732594     2.764914
 H    -3.730704     0.974778     3.564340
 H    -2.955707     2.461709     2.987611
 H    -4.717230     2.257622     2.825290
 C     1.221023     0.388314     2.748577
 C     1.179255     2.237213     1.209468
 C     0.635470     2.595420     3.539114
 C     0.802710     3.089954     2.247949
 C     0.852596     1.239004     3.786248
 H     1.352439    -0.675569     2.959140
 H     0.722810     0.837101     4.793940
 H     0.338821     3.262932     4.351534
 H     0.638682     4.150698     2.040956
 H     1.287811     2.647200     0.204919
 H     3.962160    -0.264859     1.042331
 H     3.033978    -1.661304     1.605792
 C     4.004044    -1.978717    -0.297789
 H     4.240468    -1.405093    -1.210400
 H     3.315140    -2.775270    -0.613885
 C     5.281225    -2.584990     0.262987
 H     6.000485    -1.804764     0.560159
 H     5.072276    -3.196889     1.155133
 H     5.777180    -3.232659    -0.475935
 H     2.376916     0.026560    -2.159742
 H     1.399008     1.343334    -1.572583
 C     3.528229     1.565654    -1.139450
 H     4.407227     0.905939    -1.051318
 H     3.484189     2.128890    -0.192760
 C     3.729377     2.530355    -2.298886
 H     3.804346     1.991754    -3.257104
 H     2.881267     3.229110    -2.383702
 H     4.646509     3.126570    -2.176902
