  98
scf done:    -4032.378606
 C     0.906168    -3.451887    -1.256616
 H     1.551970    -3.560862    -2.134702
 H     1.337095    -3.872490    -0.341862
 C    -0.497613    -3.447629    -1.424249
 H    -0.919866    -3.530262    -2.432098
 H    -1.136575    -3.857415    -0.636557
 H     0.070336    -2.016010     0.431172
Co     0.172240    -1.596154    -0.983057
 C     0.978577     0.228024     1.663483
 C     3.137945    -1.362785     0.682581
 C     2.353414     1.053848    -0.747042
 C    -1.870344     1.127909    -0.618827
 C    -3.055168    -1.147167    -1.867843
 C    -2.584683    -1.107336     1.012596
 P    -1.747540    -0.704224    -0.599263
 P     1.632068    -0.446751     0.084984
 C     0.476461    -1.028208    -2.605091
 O     0.726142    -0.633538    -3.660419
 C     1.018896    -0.548314     2.834064
 H     1.520921    -1.518541     2.829738
 C     0.316482     1.455707     1.726201
 H     0.253547     2.098032     0.846738
 C     0.421191    -0.118638     4.008889
 H     0.452801    -0.723962     4.916755
 C    -0.293372     1.902058     2.899125
 H    -0.804262     2.864797     2.890025
 C    -0.250152     1.111957     4.051729
 O    -0.811779     1.447851     5.228471
 C    -1.512350     2.656918     5.317792
 H    -2.363726     2.690389     4.614970
 H    -1.895741     2.723967     6.343689
 H    -0.859250     3.525873     5.123090
 H     2.774324    -2.365792     0.959727
 H     3.505792    -0.872142     1.595461
 C     4.258943    -1.463741    -0.314053
 C     5.571866    -1.200314     0.092027
 H     5.762984    -0.908867     1.128214
 C     4.030359    -1.802964    -1.653192
 H     3.009838    -2.013931    -1.976914
 C     6.628521    -1.270827    -0.811563
 H     7.644439    -1.052772    -0.473426
 C     5.084826    -1.863715    -2.561704
 H     4.883175    -2.123073    -3.604037
 C     6.388739    -1.598196    -2.145147
 H     7.215492    -1.646489    -2.858034
 H     1.542439     1.800450    -0.746697
 H     2.485499     0.762470    -1.799199
 C     3.634815     1.633115    -0.220711
 C     4.731827     1.765185    -1.080646
 H     4.640386     1.426846    -2.116172
 C     3.783598     2.041924     1.111751
 H     2.943640     1.950464     1.803087
 C     5.941906     2.284129    -0.629275
 H     6.785313     2.366026    -1.319012
 C     4.996646     2.554565     1.567489
 H     5.092785     2.862536     2.611774
 C     6.081513     2.677835     0.700168
 H     7.032028     3.078936     1.060207
 C    -2.711606     1.871428     0.222818
 H    -3.357740     1.369609     0.943838
 C    -1.088327     1.830120    -1.538791
 H    -0.431557     1.283075    -2.217904
 C    -2.744204     3.255830     0.165494
 H    -3.395813     3.835242     0.822388
 C    -1.116494     3.222105    -1.619589
 H    -0.487246     3.725395    -2.353984
 C    -1.942616     3.948164    -0.753251
 O    -2.033382     5.290411    -0.734119
 C    -1.249875     6.033199    -1.627227
 H    -1.493138     5.799673    -2.678605
 H    -1.473943     7.090461    -1.437991
 H    -0.170962     5.862132    -1.465987
 H    -3.284516    -2.210786    -1.702157
 H    -2.532002    -1.084239    -2.833596
 C    -4.274327    -0.280781    -1.859245
 C    -4.294671     0.906997    -2.604980
 H    -3.434217     1.158339    -3.229744
 C    -5.393663    -0.579093    -1.071745
 H    -5.421383    -1.509513    -0.500553
 C    -5.381228     1.773758    -2.549573
 H    -5.368350     2.695093    -3.136810
 C    -6.484874     0.287136    -1.012419
 H    -7.346404     0.029284    -0.391548
 C    -6.480405     1.471210    -1.746058
 H    -7.333650     2.151908    -1.699204
 H    -3.616717    -0.726033     0.979368
 H    -2.030945    -0.529495     1.769651
 C    -2.563934    -2.566898     1.352677
 C    -1.537116    -3.092977     2.146844
 H    -0.787631    -2.413870     2.555674
 C    -3.536134    -3.448191     0.864003
 H    -4.361097    -3.064724     0.260538
 C    -1.465766    -4.457102     2.415761
 H    -0.651466    -4.844853     3.032747
 C    -3.470124    -4.814117     1.132602
 H    -4.238512    -5.481589     0.735331
 C    -2.427738    -5.326078     1.902290
 H    -2.369806    -6.397283     2.108568
