  90
scf done:    -4050.355854
 C    -0.640188     0.410184    -3.486227
 H    -1.164554    -0.364583    -4.057452
 H    -1.154837     1.376502    -3.480088
 C     0.772098     0.363139    -3.419631
 H     1.301491    -0.443315    -3.937762
 H     1.352053     1.289094    -3.355785
 H    -0.003665     1.279634    -1.398534
Co    -0.022746    -0.163638    -1.650402
 C    -2.182150     1.620628     0.353938
 C    -3.344096    -0.711539    -0.882444
 C    -1.460007    -1.065429     1.208371
 C     2.155475    -1.255291     0.932118
 C     3.295982     0.346013    -1.131418
 C     1.498269     1.558060     0.745844
 P     1.677071     0.059139    -0.310990
 P    -1.724786    -0.058159    -0.307760
 C    -0.132399    -1.877201    -2.016342
 O    -0.263317    -2.979642    -2.321298
 H    -1.286598     1.915967     0.932877
 C    -3.411878     1.659843     1.261194
 H    -3.338873     0.922758     2.075106
 H    -4.297849     1.374782     0.668617
 C    -3.621701     3.059901     1.832377
 H    -4.511546     3.070481     2.482504
 H    -2.761713     3.324328     2.474948
 C    -3.759012     4.094074     0.721579
 H    -3.867343     5.105156     1.146334
 H    -4.686330     3.892190     0.155528
 C    -2.569043     4.040048    -0.228646
 H    -1.660055     4.360255     0.311011
 H    -2.705480     4.750766    -1.059830
 C    -2.340442     2.636056    -0.779137
 H    -3.196714     2.339879    -1.412585
 H    -1.447896     2.613385    -1.422059
 C    -3.673833    -0.588615    -2.237111
 H    -2.939937    -0.164485    -2.922501
 C    -4.281809    -1.286157    -0.012537
 H    -4.044200    -1.401839     1.047030
 C    -4.910191    -1.012208    -2.717668
 H    -5.176328    -0.921965    -3.772289
 C    -5.517316    -1.723295    -0.479512
 H    -6.253463    -2.177611     0.186164
 C    -5.816669    -1.576344    -1.829492
 F    -6.997254    -1.992673    -2.280036
 C    -1.392606    -2.460988     1.061924
 H    -1.600749    -2.916012     0.090405
 C    -1.191485    -0.520259     2.468242
 H    -1.235824     0.557652     2.622744
 C    -1.055910    -3.283984     2.128737
 H    -0.999747    -4.368230     2.017717
 C    -0.836820    -1.331929     3.546975
 H    -0.614673    -0.911386     4.529598
 C    -0.765357    -2.704407     3.359998
 F    -0.399718    -3.485909     4.373773
 H     1.312206    -1.260336     1.646579
 C     3.458490    -0.974856     1.683734
 H     3.456608     0.029746     2.133092
 H     4.290709    -0.980833     0.959534
 C     3.719153    -2.035445     2.749227
 H     4.659079    -1.811739     3.279480
 H     2.915491    -2.000030     3.507757
 C     3.770395    -3.427528     2.132376
 H     3.922493    -4.191826     2.911511
 H     4.643854    -3.489775     1.458365
 C     2.501269    -3.720445     1.342553
 H     1.648812    -3.776341     2.041529
 H     2.567637    -4.705616     0.853132
 C     2.210896    -2.645532     0.298184
 H     3.001778    -2.663006    -0.473067
 H     1.266397    -2.870944    -0.214014
 C     4.225159     1.302349    -0.704725
 H     3.983896     1.964121     0.129665
 C     3.641713    -0.494684    -2.197940
 H     2.917685    -1.230663    -2.552755
 C     5.465666     1.423518    -1.326303
 H     6.195627     2.169266    -1.006186
 C     4.883265    -0.397510    -2.818026
 H     5.162071    -1.048589    -3.648429
 C     5.779823     0.567636    -2.374548
 F     6.964801     0.677093    -2.970380
 C     1.408723     2.804976     0.104743
 H     1.544401     2.863286    -0.977995
 C     1.310158     1.516594     2.130380
 H     1.376344     0.571156     2.668097
 C     1.128317     3.966212     0.812807
 H     1.057497     4.935838     0.316875
 C     1.005407     2.670354     2.855497
 H     0.841703     2.639647     3.934306
 C     0.911274     3.880520     2.185067
 F     0.602753     4.983172     2.863125
