  94
scf done:    -4028.627398
 C     1.044836    -3.116631     1.118733
 H     1.963594    -3.521525     0.682908
 H     1.142960    -2.797729     2.161086
 C    -0.212198    -3.521703     0.628862
 H    -0.271458    -4.257251    -0.179713
 H    -1.084005    -3.508562     1.290461
 H    -0.404903    -1.182395     1.199542
Co     0.234482    -1.664878    -0.038718
 O     1.088581     0.787109     1.772200
 O     3.077628    -0.303230     0.815815
 O     1.574205     1.099602    -0.718003
 O    -2.128176    -1.119701    -2.123824
 O    -2.956499    -1.347348     0.179638
 O    -1.646044     0.758197    -0.454040
 P    -1.571963    -0.896531    -0.627702
 P     1.463585    -0.069707     0.457696
 C     0.846690    -2.171240    -1.613574
 O     1.187808    -2.503606    -2.655617
 C     1.980606     1.383139     2.732149
 H     2.924023     1.638050     2.225641
 C     2.252855     0.376529     3.831531
 H     2.728691    -0.523461     3.418716
 H     1.311896     0.081325     4.320667
 H     2.921897     0.806790     4.591774
 C     1.314325     2.648068     3.225459
 H     1.149043     3.345191     2.393043
 H     0.343535     2.414247     3.688205
 H     1.948943     3.142897     3.975495
 C     3.867137    -1.154654     0.093359
 C     3.881570    -1.127968    -1.299584
 H     3.247839    -0.412726    -1.828278
 C     4.676956    -2.048040     0.796411
 H     4.646095    -2.048130     1.887200
 C     4.684290    -2.022133    -2.019188
 C     4.637217    -2.020171    -3.518556
 H     4.825275    -1.013718    -3.923556
 H     5.379691    -2.706784    -3.948103
 H     3.639396    -2.329254    -3.868902
 C     5.492992    -2.919977     0.084983
 H     6.131113    -3.623257     0.625555
 C     5.492966    -2.914827    -1.310789
 H     6.128231    -3.615947    -1.857739
 C     1.994749     2.383540    -0.485858
 C     3.354546     2.678386    -0.413795
 H     4.078684     1.868009    -0.523707
 C     1.035368     3.387166    -0.351592
 H    -0.020575     3.118000    -0.398697
 C     3.783238     3.993648    -0.199174
 C     5.250060     4.309173    -0.142329
 H     5.797464     3.567272     0.458302
 H     5.694093     4.298791    -1.151410
 H     5.432258     5.303076     0.289895
 C     1.458728     4.696753    -0.146022
 H     0.717452     5.492480    -0.039044
 C     2.818126     4.998108    -0.064965
 H     3.137143     6.029878     0.103940
 C    -3.482927    -1.352625    -2.556050
 H    -4.166651    -0.917745    -1.811464
 C    -3.707731    -2.848447    -2.633987
 H    -3.554194    -3.309689    -1.648189
 H    -3.004211    -3.304238    -3.347399
 H    -4.733912    -3.068175    -2.965102
 C    -3.657330    -0.640528    -3.878428
 H    -3.498431     0.439993    -3.758467
 H    -2.937082    -1.022753    -4.617707
 H    -4.674605    -0.803280    -4.264556
 C    -3.085527    -1.396582     1.538079
 C    -2.552267    -0.411999     2.371807
 H    -1.993461     0.420729     1.940708
 C    -3.806454    -2.466175     2.072163
 H    -4.211733    -3.220644     1.395756
 C    -2.723614    -0.494204     3.758987
 C    -2.105028     0.543998     4.648973
 H    -1.024180     0.360149     4.764602
 H    -2.215105     1.553539     4.225779
 H    -2.553687     0.537998     5.652158
 C    -3.988674    -2.539589     3.448471
 H    -4.555284    -3.371513     3.873645
 C    -3.449825    -1.564810     4.288299
 H    -3.595714    -1.635944     5.369092
 C    -2.571015     1.557008    -1.071815
 C    -3.875390     1.639767    -0.589621
 H    -4.158426     1.042695     0.279999
 C    -2.165853     2.311047    -2.173973
 H    -1.139175     2.214989    -2.531146
 C    -4.808761     2.476421    -1.213401
 C    -6.210026     2.567361    -0.682080
 H    -6.641773     1.568052    -0.519160
 H    -6.230572     3.088943     0.288670
 H    -6.867587     3.116324    -1.370349
 C    -3.088375     3.150906    -2.789885
 H    -2.784222     3.745719    -3.654520
 C    -4.399104     3.229549    -2.319110
 H    -5.116674     3.887107    -2.816439
