  98
scf done:    -4032.376459
 C     0.965109     0.374192     3.571683
 H     1.328189    -0.478490     4.154735
 H     1.708763     1.168330     3.453778
 C    -0.413443     0.677513     3.569119
 H    -1.105275     0.058371     4.149375
 H    -0.752936     1.711016     3.449392
 H     0.428021     1.251897     1.453396
Co     0.131040    -0.142210     1.807863
 C     1.999841     1.072285    -0.658137
 C     3.478840    -0.407498     1.326470
 C     2.036313    -1.795632    -0.618086
 C    -2.079198    -1.100301    -0.584836
 C    -3.175665     0.453268     1.545096
 C    -1.660155     1.722082    -0.504528
 P    -1.613511     0.238110     0.588008
 P     1.834331    -0.339341     0.496624
 C    -0.209610    -1.798432     2.269230
 O    -0.451266    -2.868508     2.621853
 C     2.318018     2.338420    -0.137198
 H     2.588772     2.437017     0.917350
 C     1.648198     0.989123    -2.003572
 H     1.429480     0.015496    -2.447376
 C     2.276588     3.470293    -0.930324
 H     2.530177     4.452648    -0.528724
 C     1.555997     2.129009    -2.805867
 H     1.239797     2.023507    -3.843458
 C     1.855056     3.380494    -2.265534
 O     1.754720     4.546751    -2.936874
 C     1.272255     4.521974    -4.251873
 H     0.258951     4.086936    -4.303456
 H     1.233399     5.564385    -4.592785
 H     1.940321     3.953283    -4.922415
 C     3.603777    -1.276132     2.416276
 H     2.730539    -1.831757     2.764986
 C     4.602563     0.298184     0.887397
 H     4.518919     0.970634     0.029648
 C     4.835529    -1.434136     3.042900
 H     4.930887    -2.120988     3.887498
 C     5.844523     0.162671     1.519514
 C     7.029160     0.961994     1.058157
 H     7.966668     0.398482     1.174378
 H     6.932102     1.253458     0.002402
 H     7.131521     1.889775     1.645819
 C     5.946130    -0.716745     2.602105
 H     6.908967    -0.842108     3.105571
 C     3.146512    -1.906851    -1.465860
 H     3.898745    -1.114828    -1.490709
 C     1.099819    -2.828938    -0.586698
 H     0.229928    -2.743119     0.064949
 C     3.295945    -3.033561    -2.267412
 H     4.162351    -3.119670    -2.928070
 C     1.243026    -3.977096    -1.375313
 C     0.221056    -5.075276    -1.327761
 H     0.699752    -6.062801    -1.240751
 H    -0.460617    -4.944943    -0.475708
 H    -0.392775    -5.083765    -2.242915
 C     2.353813    -4.061284    -2.219479
 H     2.487782    -4.948241    -2.845667
 C    -1.361123    -1.236155    -1.784604
 H    -0.600927    -0.496983    -2.042974
 C    -3.035758    -2.070307    -0.285354
 H    -3.623755    -1.993660     0.631306
 C    -1.595248    -2.289884    -2.650420
 H    -1.031001    -2.396106    -3.578709
 C    -3.269347    -3.151188    -1.138735
 H    -4.020979    -3.890596    -0.861605
 C    -2.546546    -3.267291    -2.328568
 O    -2.680757    -4.281724    -3.209544
 C    -3.598888    -5.300223    -2.925715
 H    -4.630786    -4.913864    -2.853922
 H    -3.544690    -6.014268    -3.757215
 H    -3.350436    -5.825405    -1.986412
 C    -3.430138    -0.417473     2.613457
 H    -2.702457    -1.188070     2.874386
 C    -4.111933     1.446722     1.246762
 H    -3.922657     2.136237     0.420961
 C    -4.612064    -0.305667     3.338960
 H    -4.809910    -0.996719     4.162067
 C    -5.294550     1.585980     1.983652
 C    -6.260569     2.691087     1.667322
 H    -5.986609     3.616551     2.201126
 H    -6.264922     2.925588     0.592832
 H    -7.285846     2.430756     1.967703
 C    -5.536493     0.690398     3.029227
 H    -6.458172     0.777263     3.611508
 C    -2.380843     1.740265    -1.704634
 H    -2.894267     0.841730    -2.050827
 C    -1.039075     2.898141    -0.072296
 H    -0.473673     2.880191     0.863280
 C    -2.452978     2.911138    -2.456940
 H    -3.012906     2.916486    -3.395737
 C    -1.119450     4.085784    -0.804923
 C    -0.457125     5.344437    -0.327870
 H     0.051890     5.190332     0.633153
 H     0.289388     5.688904    -1.060683
 H    -1.192072     6.154768    -0.197605
 C    -1.828464     4.072707    -2.012139
 H    -1.896030     4.989762    -2.605046
