  54
scf done:    -3180.727029
 C     0.609826    -3.287889    -0.679008
 H     0.396030    -3.566948    -1.715261
 H     1.674281    -3.309516    -0.430767
 C    -0.357351    -3.491991     0.326228
 H    -1.315682    -3.953438     0.064985
 H    -0.039559    -3.680571     1.355345
 H     0.791782    -1.489755     0.891005
Co    -0.234647    -1.525157    -0.168229
 C     2.384363     0.596415    -0.030314
 O     2.101155    -0.980707    -2.201751
 O     0.663432     1.124044    -1.890579
 C    -2.121389     1.152822     0.484779
 O    -2.332230    -0.774627     2.243633
 O    -0.218160     0.693135     2.158729
 P    -1.182273    -0.226712     1.201171
 P     1.149404    -0.234928    -1.085653
 C    -1.536950    -1.625291    -1.343767
 O    -2.395896    -1.742747    -2.097145
 C     2.362344     1.971350     0.213215
 C     3.345459    -0.200706     0.603780
 C     4.239817     1.744167     1.719477
 C     4.273956     0.371308     1.468641
 C     3.283977     2.541025     1.091571
 H     1.618882     2.587453    -0.294710
 H     3.256916     3.616484     1.283579
 H     4.962556     2.193098     2.405196
 H     5.025002    -0.256348     1.954382
 H     3.360832    -1.278548     0.418442
 C     3.106837    -0.274707    -2.897950
 H     2.705418     0.636017    -3.370233
 H     3.932894     0.014618    -2.226858
 H     3.496150    -0.945093    -3.676454
 C    -0.470902     1.084729    -2.729398
 H    -0.418647     0.249588    -3.447071
 H    -1.400891     1.001777    -2.145908
 H    -0.492924     2.030420    -3.287956
 C    -3.378726     0.893193    -0.071989
 C    -1.563750     2.429134     0.365398
 C    -3.500890     3.165896    -0.878401
 C    -2.253068     3.430713    -0.315514
 C    -4.065772     1.896536    -0.750434
 H    -3.821621    -0.100682     0.027605
 H    -5.047666     1.686710    -1.181167
 H    -4.038056     3.951954    -1.414715
 H    -1.812620     4.426780    -0.405489
 H    -0.589746     2.627980     0.814343
 C    -2.390584    -2.125822     2.639495
 H    -2.529584    -2.793832     1.776466
 H    -1.481026    -2.440576     3.177693
 H    -3.250419    -2.223586     3.316806
 C     0.744684     0.149074     3.025489
 H     0.287749    -0.119306     3.992822
 H     1.221634    -0.745047     2.588487
 H     1.519136     0.911680     3.187972
