  94
scf done:    -4104.120776
 C    -0.844463     0.630520    -3.123611
 H    -1.579267    -0.042206    -3.577676
 H    -1.217779     1.646114    -2.966105
 C     0.530646     0.399659    -3.331632
 H     0.829771    -0.436313    -3.974839
 H     1.242548     1.226964    -3.315366
 H     0.174908     1.314055    -1.139835
Co    -0.010081    -0.112857    -1.445604
 C    -1.337336     1.466421     1.260101
 C    -3.093281     0.968796    -0.963454
 C    -2.461199    -1.154508     0.821928
 C     1.610370    -1.492631     1.110686
 C     3.361801    -0.818201    -1.023881
 C     2.381312     1.275727     0.617245
 P     1.797445    -0.253234    -0.237573
 P    -1.654017     0.238109    -0.080568
 C    -0.262396    -1.795662    -1.878448
 O    -0.442994    -2.871533    -2.245281
 C    -1.671848     1.228030     2.598582
 C    -0.676317     2.661182     0.942200
 C    -0.710283     3.346916     3.256195
 C    -0.377553     3.598642     1.926710
 C    -1.352682     2.156118     3.588629
 H    -2.170143     0.298386     2.876968
 H    -1.610958     1.943727     4.629198
 H    -0.458558     4.072614     4.033390
 H     0.146021     4.517320     1.653783
 H    -0.371593     2.843395    -0.091074
 C    -3.494257     2.295455    -0.835712
 H    -2.980877     2.940518    -0.120175
 C    -3.781577     0.139767    -1.872750
 O    -3.349761    -1.133419    -1.943765
 C    -3.916657    -2.022379    -2.861030
 H    -4.983091    -2.209222    -2.643604
 H    -3.357541    -2.961214    -2.763210
 H    -3.820776    -1.653898    -3.897758
 C    -4.550971     2.808190    -1.591342
 H    -4.846964     3.853091    -1.475460
 C    -4.843520     0.644160    -2.626694
 H    -5.376824     0.001712    -3.328097
 C    -5.222855     1.979592    -2.483004
 H    -6.052978     2.367166    -3.078687
 C    -1.830763    -2.396608     0.857120
 H    -0.846216    -2.499605     0.401553
 C    -3.734939    -1.035378     1.422941
 O    -4.297917     0.185551     1.403870
 C    -5.614357     0.362359     1.836406
 H    -6.315221    -0.286861     1.283409
 H    -5.866377     1.411048     1.633852
 H    -5.723509     0.168061     2.918317
 C    -2.424910    -3.506487     1.456707
 H    -1.898197    -4.462298     1.470453
 C    -4.343252    -2.147051     2.014987
 H    -5.328830    -2.057223     2.472605
 C    -3.684688    -3.376708     2.028244
 H    -4.170382    -4.236877     2.496190
 C     2.105255    -2.791439     0.937387
 C     0.816012    -1.227657     2.233837
 C     1.071002    -3.502589     3.005583
 C     0.563009    -2.217175     3.180257
 C     1.833715    -3.787385     1.873578
 H     2.707373    -3.029345     0.057249
 H     2.226806    -4.795057     1.716367
 H     0.862110    -4.283207     3.740956
 H    -0.060704    -1.983994     4.046590
 H     0.365328    -0.243388     2.364684
 C     3.365802    -1.128133    -2.381240
 H     2.423873    -1.030750    -2.920811
 C     4.567239    -0.940185    -0.296819
 O     4.506954    -0.670418     1.017346
 C     5.662594    -0.735569     1.800128
 H     6.080092    -1.757337     1.830203
 H     5.365929    -0.441143     2.814731
 H     6.440557    -0.039993     1.440093
 C     4.528197    -1.540865    -3.033271
 H     4.504978    -1.778877    -4.098586
 C     5.737610    -1.345745    -0.946719
 H     6.672433    -1.440334    -0.393662
 C     5.711133    -1.641174    -2.310168
 H     6.633450    -1.958838    -2.803300
 C     2.525280     1.404199     1.997793
 H     2.333282     0.541760     2.634680
 C     2.714685     2.386192    -0.188534
 O     2.651981     2.199667    -1.519458
 C     2.987058     3.246403    -2.383624
 H     2.318401     4.115443    -2.254029
 H     2.869237     2.858567    -3.403240
 H     4.032250     3.573225    -2.243190
 C     2.924411     2.603079     2.586949
 H     3.012236     2.671848     3.673085
 C     3.110205     3.594354     0.395836
 H     3.356850     4.453224    -0.228410
 C     3.205739     3.700364     1.782424
 H     3.515202     4.649401     2.227375
