  62
scf done:    -3235.488683
 C    -3.516979     1.375616    -1.059749
 H    -4.130955     1.897375    -0.317148
 H    -3.189308     2.013027    -1.886675
 C    -3.723833    -0.005232    -1.288354
 H    -4.502570    -0.528910    -0.724167
 H    -3.555638    -0.418904    -2.288512
 H    -1.348092     0.442549    -1.602611
Co    -2.011293     0.303236    -0.272555
 C     1.175547     1.438593    -0.447600
 C    -0.836511     3.383046    -0.885709
 C    -0.302311     2.472939     1.791095
 C     0.591991    -1.712160     0.461889
 C    -1.888648    -3.032582     0.509224
 C    -0.758764    -2.279823    -2.049528
 P    -1.053635    -1.620931    -0.353008
 P    -0.544419     1.828992     0.075174
 C    -2.632354     0.100140     1.343529
 O    -2.992933    -0.081110     2.424454
 C     2.275374     1.465832     0.416500
 H     2.145695     1.707454     1.471947
 C     1.397393     1.101566    -1.791035
 H     0.548400     1.052820    -2.478320
 C     3.558360     1.167146    -0.038359
 H     4.415647     1.163446     0.637221
 C     2.673003     0.813661    -2.264541
 H     2.852293     0.554659    -3.309801
 C     3.740748     0.845727    -1.374972
 F     4.962280     0.540789    -1.812531
 H    -1.851903     3.715970    -0.617468
 C     0.183033     4.495038    -0.715598
 H     1.200540     4.149402    -0.954617
 H     0.196825     4.887188     0.312911
 H    -0.904881     3.059159    -1.936572
 H    -0.047597     5.340811    -1.381872
 H     0.570284     3.144996     1.817039
 C    -1.531448     3.184930     2.336420
 H    -2.425392     2.547044     2.296707
 H    -1.751555     4.103245     1.771082
 H    -0.054666     1.598608     2.415470
 H    -1.377000     3.474937     3.386666
 C     0.649183    -1.426947     1.834547
 H    -0.267730    -1.184117     2.379300
 C     1.789670    -1.982479    -0.208020
 H     1.791977    -2.179668    -1.280678
 C     1.857167    -1.429367     2.524260
 H     1.908443    -1.208756     3.592133
 C     3.008970    -1.981889     0.466182
 H     3.948738    -2.171501    -0.055493
 C     3.026394    -1.705718     1.825260
 F     4.192669    -1.678912     2.470180
 H    -1.916412    -2.759173     1.576180
 C    -3.293732    -3.317536     0.007127
 H    -3.306685    -3.567165    -1.065317
 H    -3.945703    -2.444929     0.146585
 H    -1.240961    -3.920635     0.432313
 H    -3.736443    -4.166372     0.550265
 H     0.000162    -1.611729    -2.489382
 C    -0.383838    -3.745707    -2.200085
 H    -1.210698    -4.406916    -1.902252
 H     0.490346    -4.020609    -1.591322
 H    -1.686449    -2.050106    -2.597078
 H    -0.144559    -3.978275    -3.249420
