  74
scf done:    -3194.211303
 C    -0.601981    -3.134426    -1.547593
 H    -0.902793    -3.996205    -0.941261
 H    -1.345037    -2.858237    -2.303272
 C     0.774874    -2.926392    -1.820283
 H     1.512041    -3.631148    -1.417905
 H     1.071878    -2.485648    -2.777469
 H    -0.267054    -0.805052    -1.713004
Co     0.096203    -1.564410    -0.507640
 C    -1.754722     1.200703    -0.763655
 C    -3.253112    -1.246446    -0.535073
 C    -1.941795     0.044630     1.876165
 C     1.556487     0.883373     1.199707
 C     3.425265    -0.867357    -0.110439
 C     1.824418     1.189035    -1.675301
 P     1.717890    -0.113559    -0.342738
 P    -1.677897    -0.438929     0.085498
 C     0.545454    -2.537509     0.872731
 O     0.909808    -3.238718     1.713131
 C    -1.669613     2.431866    -0.105113
 C    -1.831347     1.211192    -2.166338
 C    -1.709833     3.622795    -2.210871
 C    -1.815841     2.403178    -2.882078
 C    -1.639446     3.630537    -0.821393
 H    -1.603887     2.474320     0.981445
 H    -1.559491     4.577161    -0.280840
 H    -1.685467     4.560639    -2.770771
 H    -1.875266     2.379652    -3.972890
 H    -1.880608     0.264170    -2.709256
 H    -2.925011    -1.548197    -1.544031
 C    -3.539903    -2.524969     0.244567
 H    -4.271130    -3.145980    -0.296891
 H    -2.627081    -3.120299     0.388198
 H    -3.969535    -2.303379     1.233632
 C    -4.497969    -0.380654    -0.688363
 H    -4.289076     0.565530    -1.207359
 H    -5.250612    -0.926137    -1.281297
 H    -4.959812    -0.141564     0.278593
 H    -1.136662     0.786846     2.020254
 C    -3.280803     0.698820     2.206057
 H    -3.226437     1.177358     3.197657
 H    -3.582731     1.465163     1.479417
 H    -4.083185    -0.052190     2.255222
 C    -1.654036    -1.090626     2.851562
 H    -0.647290    -1.501586     2.724511
 H    -1.726716    -0.710929     3.883420
 H    -2.372005    -1.917440     2.751707
 C     1.666613     0.209902     2.428301
 C     1.229250     2.243951     1.225395
 C     1.112084     2.223428     3.642306
 C     1.005164     2.905887     2.434098
 C     1.452779     0.869616     3.633619
 H     1.911257    -0.854578     2.446610
 H     1.542524     0.319211     4.573204
 H     0.935239     2.741910     4.587477
 H     0.743242     3.967079     2.424446
 H     1.125292     2.804836     0.296953
 H     3.190770    -1.705428     0.569383
 C     3.943079    -1.475847    -1.409748
 H     4.810463    -2.122157    -1.201207
 H     3.179667    -2.083694    -1.911361
 H     4.280606    -0.696904    -2.110349
 C     4.489840    -0.005294     0.559283
 H     4.138190     0.446894     1.496700
 H     5.366920    -0.629194     0.797969
 H     4.836365     0.804649    -0.096600
 H     0.895168     1.755928    -1.485183
 C     3.013543     2.140856    -1.591789
 H     2.847307     3.003076    -2.257965
 H     3.188768     2.527982    -0.578683
 H     3.938107     1.648309    -1.927707
 C     1.690572     0.610646    -3.080242
 H     0.831311    -0.070246    -3.147361
 H     1.541257     1.429146    -3.802274
 H     2.590534     0.057093    -3.385086
