  94
scf done:    -4104.255225
 C     0.693837    -0.869167    -3.576000
 H     1.084869    -0.131747    -4.284020
 H     1.374842    -1.699115    -3.372378
 C    -0.693379    -1.025364    -3.416637
 H    -1.385543    -0.405741    -3.995649
 H    -1.109675    -1.987881    -3.107914
 H     0.293614    -1.395418    -1.244818
Co     0.097321    -0.044600    -1.820315
 C     1.733439    -0.590637     1.025772
 O     2.964416    -1.049414    -1.387651
 O     2.696969     1.402965    -0.586809
 C    -2.036036     1.365699     0.472979
 O    -2.979431    -0.612478    -1.186024
 O    -1.333677    -1.264554     0.653789
 P    -1.546702    -0.102847    -0.513304
 P     1.849881    -0.036849    -0.708131
 C     0.028719     1.577856    -2.488526
 O     0.011240     2.630545    -2.945119
 C     1.147408     0.264808     1.967703
 C     2.044056    -1.900619     1.396374
 C     1.194312    -1.492175     3.620580
 C     1.775774    -2.348506     2.688839
 C     0.885346    -0.181465     3.257763
 H     0.888644     1.290032     1.699620
 H     0.432095     0.499443     3.981952
 H     0.977747    -1.847279     4.630794
 H     2.020003    -3.376704     2.965293
 H     2.494686    -2.581640     0.675236
 C     4.228793    -1.430151    -1.033386
 C     5.223997    -0.507203    -0.718912
 H     4.997138     0.556971    -0.753241
 C     4.504107    -2.807868    -1.096787
 C     3.455185    -3.768098    -1.570115
 H     3.770621    -4.808271    -1.411577
 H     2.487602    -3.612877    -1.069339
 H     3.261800    -3.629245    -2.646337
 C     6.501317    -0.956179    -0.388405
 H     7.275690    -0.228997    -0.133553
 C     5.793034    -3.227500    -0.759666
 H     6.021357    -4.296387    -0.794047
 C     6.785512    -2.318753    -0.394165
 H     7.783877    -2.676011    -0.132638
 C     3.202814     2.120819     0.462572
 C     3.927941     1.541247     1.505224
 H     4.094432     0.465014     1.521224
 C     2.991814     3.510929     0.412868
 C     2.252465     4.123230    -0.736597
 H     2.271379     5.219791    -0.675545
 H     2.687655     3.816496    -1.699318
 H     1.200257     3.803153    -0.768121
 C     4.426551     2.341566     2.530826
 H     4.985713     1.877809     3.346580
 C     3.508753     4.287215     1.453305
 H     3.354007     5.369377     1.423691
 C     4.214698     3.716808     2.511356
 H     4.605115     4.348070     3.312578
 C    -3.208389     1.477261     1.236321
 C    -1.124594     2.428360     0.483893
 C    -2.537091     3.681409     1.978444
 C    -1.365406     3.577948     1.231195
 C    -3.454171     2.630586     1.977925
 H    -3.939198     0.670327     1.257728
 H    -4.375137     2.706224     2.560645
 H    -2.737235     4.582532     2.563247
 H    -0.634290     4.389865     1.228215
 H    -0.206610     2.339929    -0.100004
 C    -4.252900    -0.113575    -1.112516
 C    -5.209840    -0.835241    -0.398598
 H    -4.904807    -1.749314     0.114208
 C    -4.581030     1.067707    -1.794644
 C    -3.546366     1.816354    -2.575943
 H    -4.013281     2.469903    -3.325338
 H    -2.930669     2.452779    -1.919157
 H    -2.860893     1.125437    -3.086483
 C    -6.518085    -0.366119    -0.328601
 H    -7.264329    -0.928709     0.237079
 C    -5.903779     1.514861    -1.704530
 H    -6.180196     2.434981    -2.226691
 C    -6.865929     0.817549    -0.978009
 H    -7.890021     1.194053    -0.927476
 C    -2.284418    -1.894703     1.404790
 C    -2.663021    -1.370994     2.639376
 H    -2.197915    -0.445696     2.980653
 C    -2.798840    -3.114996     0.934889
 C    -2.325269    -3.678115    -0.368942
 H    -2.680368    -4.708173    -0.507554
 H    -2.681833    -3.066631    -1.212497
 H    -1.225571    -3.668901    -0.419021
 C    -3.612392    -2.037482     3.410978
 H    -3.915188    -1.623969     4.375808
 C    -3.745442    -3.765394     1.732541
 H    -4.159414    -4.716247     1.385733
 C    -4.162809    -3.232297     2.952011
 H    -4.906603    -3.761736     3.551722
