 102
scf done:    -3859.208540
 C    -0.612530     0.421081    -3.549342
 H    -1.118103    -0.366643    -4.119127
 H    -1.158361     1.370599    -3.547566
 C     0.804878     0.437385    -3.495272
 H     1.370515    -0.338922    -4.024018
 H     1.328310     1.397475    -3.442133
 H     0.000449     1.315523    -1.445641
Co     0.032225    -0.129452    -1.727278
 C    -1.438871     1.485970     0.796261
 C    -3.177098     0.754898    -1.366059
 C    -2.270965    -1.266063     0.696444
 C     1.397838    -1.185309     1.108567
 C     3.267287    -0.984552    -1.058809
 C     2.245816     1.482155     0.377489
 P     1.740145    -0.143175    -0.372080
 P    -1.697531     0.119646    -0.418756
 C     0.091283    -1.826625    -2.140158
 O     0.205829    -2.918868    -2.493400
 C    -1.321565     1.301572     2.177564
 H    -1.437566     0.310427     2.614835
 C    -1.281301     2.789384     0.296474
 H    -1.349657     2.966457    -0.779432
 C    -1.029851     2.365863     3.032811
 H    -0.924086     2.218763     4.109338
 C    -1.016300     3.865416     1.134032
 H    -0.900214     4.878239     0.744420
 C    -0.878310     3.636438     2.499289
 F    -0.589846     4.657430     3.304158
 H    -2.679643     1.476511    -2.038901
 C    -4.282592     1.514888    -0.632125
 H    -3.858910     2.292958     0.020303
 H    -4.845024     0.832091     0.022437
 C    -5.245798     2.137947    -1.640512
 H    -6.049623     2.675683    -1.111628
 H    -4.704874     2.895920    -2.236005
 C    -5.835439     1.088455    -2.577204
 H    -6.496028     1.563419    -3.320714
 H    -6.473072     0.401962    -1.990535
 C    -4.744392     0.280886    -3.272420
 H    -4.180169     0.937549    -3.958826
 H    -5.189722    -0.510722    -3.896774
 C    -3.773503    -0.328647    -2.266155
 H    -4.314928    -1.062521    -1.643696
 H    -2.968811    -0.875726    -2.780195
 H    -1.442973    -1.323078     1.428691
 C    -2.314417    -2.634606     0.012361
 H    -1.363238    -2.836691    -0.494707
 H    -3.090312    -2.638918    -0.771260
 C    -2.603015    -3.745957     1.018713
 H    -2.663150    -4.714232     0.495676
 H    -1.751594    -3.820686     1.716557
 C    -3.872683    -3.490016     1.820217
 H    -4.018998    -4.283219     2.571144
 H    -4.748043    -3.532920     1.146708
 C    -3.827359    -2.121029     2.486841
 H    -3.019290    -2.106292     3.241427
 H    -4.765541    -1.921861     3.030019
 C    -3.576914    -1.023552     1.457319
 H    -4.411117    -1.026423     0.736136
 H    -3.586538    -0.033168     1.936130
 C     1.230643    -2.567313     0.913875
 H     1.372956    -3.001143    -0.078265
 C     1.192981    -0.679662     2.396977
 H     1.310442     0.384947     2.597921
 C     0.871919    -3.411453     1.956933
 H     0.746570    -4.484731     1.804249
 C     0.810233    -1.509722     3.451999
 H     0.637444    -1.113501     4.454520
 C     0.649539    -2.866637     3.217343
 F     0.264110    -3.665242     4.211397
 H     2.814535    -1.829995    -1.610620
 C     4.281744    -1.574732    -0.076296
 H     3.782428    -2.200040     0.677974
 H     4.783192    -0.764671     0.476027
 C     5.331732    -2.394102    -0.823209
 H     6.064821    -2.804847    -0.109949
 H     4.839734    -3.262830    -1.297338
 C     6.035213    -1.568267    -1.894423
 H     6.757218    -2.189802    -2.448544
 H     6.623786    -0.770565    -1.405374
 C     5.033691    -0.931625    -2.851044
 H     4.528087    -1.722372    -3.434152
 H     5.552097    -0.290480    -3.582425
 C     3.981129    -0.120766    -2.101469
 H     4.476805     0.724454    -1.593359
 H     3.254264     0.311071    -2.802458
 H     1.366683     1.712911     1.009862
 C     2.336839     2.624266    -0.638963
 H     1.428844     2.633830    -1.260235
 H     3.183742     2.449796    -1.323305
 C     2.523670     3.964240     0.066124
 H     2.614950     4.770472    -0.679950
 H     1.616601     4.183899     0.655209
 C     3.730472     3.959973     0.997033
 H     3.808867     4.921416     1.529987
 H     4.653970     3.860009     0.397926
 C     3.655794     2.804449     1.987773
 H     2.796313     2.957948     2.666210
 H     4.555211     2.781243     2.624435
 C     3.492095     1.470266     1.265308
 H     4.379460     1.301173     0.632411
 H     3.465615     0.640258     1.987103
