 102
scf done:    -4333.163828
 C    -0.472216    -0.252899    -3.960616
 H    -0.113310    -1.018492    -4.654212
 H    -1.548489    -0.057807    -4.023168
 C     0.390428     0.765445    -3.515045
 H     1.423893     0.803841    -3.869677
 H    -0.022378     1.744432    -3.252189
 H     1.320492    -1.282486    -2.693191
Co     0.158138    -0.638769    -2.073186
 C    -1.586335     2.078453    -0.820085
 O    -3.076502     0.169357    -1.649645
 O    -1.645175    -0.438430     0.406510
 C     1.297633    -0.011479     1.065207
 O     2.839463    -1.395498    -0.671760
 O     2.569538     1.171235    -1.042194
 P     1.685830    -0.204260    -0.697751
 P    -1.514872     0.283260    -1.073866
 C    -0.235119    -2.300072    -1.755637
 O    -0.398415    -3.417947    -1.536879
 C    -2.789220     2.765985    -0.579449
 H    -3.728998     2.214761    -0.573104
 C    -0.397732     2.810454    -0.858665
 H     0.544702     2.311552    -1.093658
 C    -2.789702     4.128877    -0.345294
 H    -3.716500     4.672438    -0.153062
 C    -0.384222     4.183909    -0.623325
 H     0.564175     4.719547    -0.667238
 C    -1.584837     4.851939    -0.356709
 O    -1.682276     6.168743    -0.116073
 C    -0.517373     6.949188    -0.123730
 H    -0.018611     6.929489    -1.108139
 H    -0.827751     7.977879     0.097464
 H     0.201053     6.618463     0.646454
 C    -3.801674    -0.988169    -1.789859
 C    -3.337436    -2.042690    -2.573058
 H    -2.379543    -1.939666    -3.080614
 C    -5.053196    -1.046413    -1.152876
 C    -5.580000     0.118428    -0.372795
 H    -4.915078     0.383281     0.463127
 H    -5.674113     1.009548    -1.013463
 H    -6.570720    -0.108439     0.042808
 C    -4.093332    -3.207089    -2.688083
 H    -3.714571    -4.036282    -3.289504
 C    -5.791958    -2.224794    -1.292358
 H    -6.764600    -2.291042    -0.797279
 C    -5.320561    -3.304061    -2.038342
 H    -5.918801    -4.214192    -2.120067
 C    -2.543469    -0.322285     1.428101
 C    -2.746573     0.883948     2.095340
 H    -2.184563     1.764902     1.789257
 C    -3.181141    -1.505943     1.837970
 C    -2.874953    -2.803189     1.157914
 H    -3.194119    -2.795118     0.104935
 H    -1.791361    -2.995432     1.150028
 H    -3.379563    -3.638651     1.661348
 C    -3.643320     0.940637     3.160408
 H    -3.801388     1.887650     3.681091
 C    -4.076865    -1.417198     2.907356
 H    -4.591056    -2.325254     3.234191
 C    -4.321227    -0.208548     3.560316
 H    -5.029679    -0.170067     4.390880
 C     1.136585     1.242223     1.667754
 H     1.411829     2.146906     1.125260
 C     0.893316    -1.146117     1.776846
 H     0.985894    -2.136900     1.324799
 C     0.592538     1.358848     2.937791
 H     0.447423     2.333682     3.406675
 C     0.339716    -1.044224     3.047115
 H     0.020071    -1.949242     3.562914
 C     0.168318     0.218079     3.630908
 O    -0.408257     0.426403     4.825701
 C    -1.022661    -0.655365     5.474855
 H    -0.290709    -1.429056     5.765553
 H    -1.487613    -0.251065     6.382709
 H    -1.805321    -1.109586     4.843310
 C     3.576194    -1.946499     0.346060
 C     4.236042    -1.182552     1.305314
 H     4.167614    -0.096619     1.277196
 C     3.662628    -3.349067     0.342620
 C     2.947399    -4.147029    -0.703111
 H     1.854261    -4.067042    -0.598650
 H     3.183346    -3.781527    -1.713956
 H     3.218779    -5.209537    -0.639846
 C     4.988046    -1.814665     2.292754
 H     5.502061    -1.209318     3.042716
 C     4.430133    -3.954294     1.341253
 H     4.510380    -5.044821     1.349530
 C     5.085917    -3.202900     2.315130
 H     5.676998    -3.703099     3.085567
 C     3.896936     1.403377    -0.781980
 C     4.251059     2.203414     0.305029
 H     3.466331     2.608026     0.944041
 C     4.870526     0.878619    -1.648074
 C     4.489249     0.067710    -2.848199
 H     4.318202    -0.984978    -2.576961
 H     3.551678     0.434327    -3.288666
 H     5.279312     0.104550    -3.610670
 C     5.592289     2.461430     0.575454
 H     5.863397     3.082038     1.432542
 C     6.209693     1.150189    -1.347992
 H     6.982865     0.745585    -2.006774
 C     6.577135     1.921807    -0.248269
 H     7.633017     2.111165    -0.042979
