  90
scf done:    -3850.524613
 C     0.623557    -2.158313    -2.435187
 H     1.107786    -1.670385    -3.287272
 H     1.267691    -2.870615    -1.910717
 C    -0.774037    -2.346307    -2.441872
 H    -1.369052    -1.997298    -3.291761
 H    -1.200862    -3.215359    -1.935755
 H    -0.148715    -1.932012    -0.141679
Co    -0.273708    -0.864930    -1.158861
 C     2.375827    -1.072404     1.013786
 O     2.786975     0.239574    -1.177218
 O     1.200612     1.312032     0.541372
 C    -2.724528     1.109711     0.090449
 O    -3.235451    -1.437330     0.101993
 O    -1.424106    -0.624986     1.708210
 P    -1.880766    -0.503464     0.127738
 P     1.471082    -0.119360    -0.248723
 C    -0.611238     0.457262    -2.269146
 O    -0.856372     1.336712    -2.964753
 C     1.635183    -1.626934     2.066280
 H     0.548835    -1.502789     2.081289
 C     3.764137    -1.245142     0.985730
 H     4.338878    -0.817324     0.163001
 C     2.271102    -2.327966     3.085233
 H     1.712660    -2.764797     3.915352
 C     4.409186    -1.955039     1.995960
 H     5.490287    -2.105566     1.991013
 C     3.652587    -2.483001     3.034724
 F     4.264365    -3.159109     4.004065
 C     2.663138     0.826102    -2.460362
 H     1.863826     0.317572    -3.023577
 H     2.374975     1.887459    -2.361055
 C     3.985104     0.696045    -3.182428
 H     3.907564     1.245243    -4.136905
 H     4.764710     1.209890    -2.592334
 C     4.397590    -0.746483    -3.440561
 H     3.624794    -1.236396    -4.058857
 H     4.400881    -1.291657    -2.482443
 C     5.753357    -0.870301    -4.115238
 H     5.766448    -0.356485    -5.090135
 H     6.548869    -0.421854    -3.498253
 H     6.023511    -1.922431    -4.291087
 C     2.196963     2.066512     1.215957
 H     1.689958     2.524438     2.081290
 H     2.982820     1.400113     1.610389
 C     2.793401     3.141365     0.327943
 H     3.485377     3.742265     0.944130
 H     3.412207     2.664494    -0.449887
 C     1.752365     4.045480    -0.317897
 H     1.150382     4.528088     0.473356
 H     1.045565     3.422612    -0.891329
 C     2.358810     5.102577    -1.225411
 H     3.048694     5.761319    -0.673706
 H     2.933544     4.639659    -2.044238
 H     1.584984     5.737211    -1.682744
 C    -1.915318     2.250982     0.181948
 H    -0.830844     2.136275     0.277084
 C    -4.109195     1.254111    -0.040790
 H    -4.734489     0.362658    -0.111465
 C    -2.481198     3.520692     0.155857
 H    -1.869377     4.421920     0.226963
 C    -4.684011     2.522255    -0.078901
 H    -5.761387     2.661326    -0.186039
 C    -3.860846     3.637541     0.022192
 F    -4.407323     4.850622    -0.011623
 C    -3.138420    -2.838605     0.299655
 H    -2.191486    -3.209438    -0.127797
 H    -3.114377    -3.048337     1.383764
 C    -4.330095    -3.510387    -0.345122
 H    -4.305183    -4.581915    -0.080199
 H    -5.248820    -3.100962     0.111210
 C    -4.388853    -3.343413    -1.856939
 H    -3.497099    -3.810633    -2.308777
 H    -4.316616    -2.269621    -2.095467
 C    -5.646768    -3.931958    -2.473435
 H    -5.729105    -5.011792    -2.268347
 H    -6.552560    -3.451910    -2.068778
 H    -5.661719    -3.800081    -3.565833
 C    -2.258820    -0.282443     2.802664
 H    -2.841086     0.625218     2.565038
 H    -2.977534    -1.099307     2.988712
 C    -1.374834    -0.045736     4.007980
 H    -2.019045     0.138087     4.885271
 H    -0.817001    -0.974194     4.224703
 C    -0.399736     1.106373     3.808067
 H    -0.970878     2.046373     3.705589
 H     0.112638     0.960206     2.844474
 C     0.621523     1.231991     4.925413
 H     0.138839     1.378141     5.905413
 H     1.244420     0.325277     4.993915
 H     1.299230     2.083746     4.760408
