  78
scf done:    -3693.411979
 C    -1.275355    -0.475570     3.114587
 H    -1.567518     0.440283     3.635955
 H    -2.123861    -1.097072     2.810715
 C    -0.031029    -1.079004     3.393448
 H     0.635763    -0.623332     4.132800
 H     0.066068    -2.165237     3.324351
 H    -0.499582    -1.441042     1.054229
Co     0.013568    -0.162642     1.584768
 C    -2.877283    -0.349655    -0.142504
 O    -2.392348     1.963484     0.916846
 O    -0.907605     1.291831    -1.062309
 C     2.765198     0.262516    -0.351861
 O     2.511260    -2.094317     0.685472
 O     0.792866    -1.449865    -1.102661
 P     1.486058    -0.875026     0.279923
 P    -1.479139     0.700078     0.372546
 C     0.903755     1.236821     2.166300
 O     1.533229     2.124992     2.532241
 C    -2.576945    -1.591991    -0.718758
 H    -1.530738    -1.891169    -0.831526
 C    -4.212917     0.038276    -0.003464
 H    -4.442072     1.002162     0.453230
 C    -3.593838    -2.428068    -1.165144
 H    -3.381718    -3.396002    -1.623076
 C    -5.240444    -0.796831    -0.438339
 H    -6.290411    -0.517040    -0.334235
 C    -4.915330    -2.017416    -1.015903
 F    -5.892524    -2.818093    -1.435002
 C    -1.791018     3.178252     1.372240
 H    -0.738784     3.205584     1.034057
 C    -1.831307     3.242872     2.885616
 H    -1.254504     2.424491     3.332824
 H    -2.871263     3.168738     3.238538
 H    -1.406556     4.193341     3.240765
 C    -2.546710     4.327740     0.734179
 H    -2.512120     4.269071    -0.362143
 H    -3.602272     4.304816     1.045967
 H    -2.116476     5.291983     1.042954
 C    -1.719352     1.908878    -2.066544
 H    -2.671899     2.223518    -1.603869
 C    -2.004533     0.927634    -3.186630
 H    -2.562999     0.056102    -2.821329
 H    -1.060821     0.575071    -3.628479
 H    -2.598453     1.412178    -3.976182
 C    -0.967124     3.132960    -2.551846
 H    -0.745418     3.814786    -1.718192
 H    -0.012516     2.832829    -3.011426
 H    -1.554813     3.681251    -3.303253
 C     2.336941     1.504204    -0.842278
 H     1.268653     1.738306    -0.847703
 C     4.129533    -0.043097    -0.356880
 H     4.460893    -1.004739     0.037676
 C     3.252709     2.419186    -1.348808
 H     2.938824     3.388792    -1.740008
 C     5.056442     0.868573    -0.857806
 H     6.126199     0.651593    -0.870000
 C     4.603783     2.086757    -1.348875
 F     5.485559     2.960829    -1.828862
 C     2.129324    -3.167156     1.548844
 H     1.039898    -3.109426     1.714104
 C     2.848426    -2.993890     2.870541
 H     2.600865    -2.018343     3.310535
 H     3.938128    -3.042325     2.720251
 H     2.559272    -3.782163     3.581819
 C     2.466883    -4.471198     0.855924
 H     1.921976    -4.563722    -0.093951
 H     3.545459    -4.523896     0.641380
 H     2.198625    -5.327307     1.492791
 C     1.536871    -2.035295    -2.174695
 H     2.525378    -2.343451    -1.790594
 C     1.717306    -1.034837    -3.300064
 H     2.289437    -0.158514    -2.969008
 H     0.735742    -0.692009    -3.659586
 H     2.252933    -1.499515    -4.141569
 C     0.771995    -3.267264    -2.618178
 H     0.630747    -3.961618    -1.777660
 H    -0.221898    -2.981302    -2.996671
 H     1.309301    -3.794135    -3.420798
