  90
scf done:    -4176.032932
 C     1.280491    -0.959879    -3.221543
 H     1.258941    -0.214332    -4.022906
 H     2.286690    -1.234150    -2.889331
 C     0.217554    -1.869810    -3.077494
 H    -0.637626    -1.834159    -3.759450
 H     0.400191    -2.853954    -2.637790
 H     0.980637    -1.333963    -0.841294
Co     0.110680    -0.443509    -1.642820
 C     3.195345     0.386586    -0.644828
 O     1.554520     2.393768    -0.880307
 O     1.099549     0.715829     1.053010
 C    -2.545053    -0.025164     0.394666
 O    -2.326042    -2.333662    -0.995124
 O    -0.837110    -1.860634     1.095595
 P    -1.344654    -1.164440    -0.333994
 P     1.423525     0.755206    -0.587553
 C    -0.929516     0.676761    -2.522602
 O    -1.632726     1.362330    -3.113020
 C     4.115643     1.187121    -1.335117
 H     3.777504     2.111560    -1.806766
 C     3.641877    -0.795645    -0.050301
 H     2.939076    -1.441776     0.481737
 C     5.449392     0.817891    -1.413480
 H     6.178722     1.430886    -1.946195
 C     4.980067    -1.172535    -0.117420
 H     5.292396    -2.098825     0.364922
 C     5.895113    -0.363464    -0.802842
 O     7.205898    -0.639897    -0.928494
 C     7.710617    -1.806823    -0.341119
 H     7.238684    -2.713594    -0.758667
 H     8.784810    -1.831519    -0.563594
 H     7.572830    -1.807358     0.754485
 C     0.450694     3.169771    -1.107830
 C     0.447034     3.985945    -2.238504
 H     1.309590     3.964431    -2.907079
 C    -0.638361     3.159888    -0.234310
 H    -0.627355     2.518137     0.647189
 C    -0.655341     4.795252    -2.496952
 H    -0.660388     5.430377    -3.385947
 C    -1.737455     3.971726    -0.506164
 H    -2.587126     3.959610     0.179588
 C    -1.752069     4.788956    -1.634737
 H    -2.617350     5.421742    -1.844097
 C     1.708457     1.367886     2.085561
 C     2.763725     2.271885     1.937030
 H     3.151841     2.508695     0.948890
 C     1.197182     1.100423     3.360194
 H     0.357707     0.409726     3.453577
 C     3.306933     2.879641     3.068208
 H     4.132945     3.583820     2.942423
 C     1.747652     1.715583     4.479647
 H     1.338033     1.496311     5.468661
 C     2.811125     2.607162     4.340955
 H     3.244778     3.091254     5.218459
 C    -2.372936     0.523128     1.672216
 H    -1.566500     0.154745     2.306230
 C    -3.580786     0.453700    -0.410816
 H    -3.730960     0.043580    -1.412608
 C    -3.208571     1.531282     2.125265
 H    -3.079648     1.975891     3.113763
 C    -4.433080     1.458519     0.036768
 H    -5.230156     1.810400    -0.617640
 C    -4.240699     2.013527     1.307346
 O    -4.978653     3.019867     1.812789
 C    -6.020119     3.550011     1.039512
 H    -6.787611     2.790444     0.809700
 H    -6.478159     4.349261     1.635448
 H    -5.649127     3.978683     0.091771
 C    -3.496924    -2.832554    -0.488972
 C    -4.475629    -3.184649    -1.420276
 H    -4.264470    -3.033377    -2.480682
 C    -3.723198    -3.013135     0.876982
 H    -2.950633    -2.742347     1.596225
 C    -5.685378    -3.716782    -0.984279
 H    -6.447691    -3.991907    -1.717274
 C    -4.941846    -3.541724     1.299438
 H    -5.118657    -3.679850     2.368845
 C    -5.926011    -3.894883     0.378254
 H    -6.876672    -4.309800     0.720004
 C     0.238708    -2.695887     1.182415
 C     0.421895    -3.748972     0.282419
 H    -0.305583    -3.905749    -0.516000
 C     1.148288    -2.487668     2.218921
 H     0.993348    -1.652681     2.901402
 C     1.532450    -4.578786     0.416554
 H     1.677417    -5.396169    -0.293702
 C     2.247867    -3.332684     2.351189
 H     2.958619    -3.162129     3.163307
 C     2.449839    -4.375975     1.447483
 H     3.316150    -5.033239     1.549512
