 102
scf done:    -4333.173799
 C     1.240426    -0.421070    -3.416228
 H     1.691903     0.418720    -3.954629
 H     1.941288    -1.220330    -3.156047
 C    -0.124219    -0.715614    -3.585983
 H    -0.736465    -0.107455    -4.259075
 H    -0.494426    -1.735011    -3.449508
 H     0.491112    -1.156304    -1.264054
Co     0.171432     0.180442    -1.793538
 C     3.067761    -0.609366    -0.231828
 O     2.641501     1.934870    -1.023162
 O     1.435595     0.944921     1.077178
 C    -2.848817     0.679341    -0.123212
 O    -2.433206    -1.523428    -1.641816
 O    -1.353683    -1.250833     0.669471
 P    -1.544041    -0.406666    -0.762030
 P     1.766674     0.608586    -0.527831
 C    -0.165784     1.816119    -2.335378
 O    -0.337459     2.888694    -2.707745
 C     4.076723    -0.778120    -1.193239
 H     4.121696    -0.115636    -2.060849
 C     3.035696    -1.462276     0.869941
 H     2.251487    -1.350241     1.619485
 C     5.030999    -1.770090    -1.045579
 H     5.827821    -1.906910    -1.778634
 C     3.988990    -2.466348     1.025835
 H     3.929785    -3.119191     1.896352
 C     4.993908    -2.625768     0.066022
 O     5.958085    -3.564090     0.125501
 C     5.983797    -4.436616     1.219821
 H     5.064049    -5.044359     1.283411
 H     6.841187    -5.104859     1.069829
 H     6.115450    -3.895394     2.173436
 C     3.845035     2.379115    -0.541886
 C     4.241045     2.242295     0.787851
 H     3.584177     1.750215     1.504595
 C     4.686302     3.013718    -1.457445
 H     4.353973     3.109227    -2.493076
 C     5.482451     2.737960     1.183151
 H     5.786784     2.621195     2.227001
 C     5.917598     3.506026    -1.042218
 H     6.567504     3.999323    -1.770738
 C     6.343131     3.376865     0.286602
 C     7.669097     3.925864     0.728162
 H     7.944308     3.557180     1.726462
 H     7.650057     5.027403     0.775434
 H     8.473529     3.646494     0.030359
 C     0.391090     1.754177     1.439802
 C     0.127073     2.958365     0.788551
 H     0.760951     3.282736    -0.037778
 C    -0.403048     1.357696     2.514533
 H    -0.180919     0.412085     3.009109
 C    -0.943114     3.744946     1.209400
 H    -1.147222     4.681780     0.684033
 C    -1.459027     2.160440     2.928262
 H    -2.079608     1.834410     3.767402
 C    -1.753824     3.368877     2.283391
 C    -2.889481     4.233440     2.747606
 H    -3.833003     3.669382     2.800477
 H    -3.043631     5.084604     2.068752
 H    -2.695505     4.641710     3.752972
 C    -3.644424     0.331672     0.981827
 H    -3.434899    -0.590529     1.524143
 C    -3.132627     1.863665    -0.801152
 H    -2.528716     2.163181    -1.658589
 C    -4.686155     1.145834     1.385645
 H    -5.310210     0.886345     2.242778
 C    -4.181016     2.693345    -0.405425
 H    -4.364779     3.617057    -0.953713
 C    -4.962085     2.336549     0.697255
 O    -5.976613     3.078559     1.181871
 C    -6.286414     4.291423     0.553155
 H    -6.584769     4.142883    -0.499352
 H    -7.130552     4.724895     1.104004
 H    -5.437684     4.996925     0.586141
 C    -3.669600    -1.964633    -1.245536
 C    -3.794514    -3.037947    -0.366187
 H    -2.898400    -3.532121     0.012772
 C    -4.811120    -1.330975    -1.737733
 H    -4.693131    -0.485814    -2.418044
 C    -5.063542    -3.464364     0.021783
 H    -5.152587    -4.305415     0.715104
 C    -6.069321    -1.767229    -1.340516
 H    -6.956913    -1.256897    -1.725019
 C    -6.221559    -2.839518    -0.451383
 C    -7.587173    -3.310752    -0.042112
 H    -7.538202    -3.979732     0.828757
 H    -8.078748    -3.865683    -0.858462
 H    -8.243772    -2.465518     0.215061
 C    -0.548579    -2.317733     0.904410
 C    -0.151223    -3.223706    -0.084741
 H    -0.493781    -3.097224    -1.111678
 C    -0.143325    -2.524945     2.225348
 H    -0.480583    -1.825189     2.991442
 C     0.677184    -4.290799     0.253861
 H     0.995209    -4.977787    -0.535082
 C     0.670309    -3.606343     2.546456
 H     0.979514    -3.748815     3.585955
 C     1.107545    -4.505388     1.566511
 C     1.980108    -5.676521     1.914290
 H     1.378513    -6.573415     2.138787
 H     2.597877    -5.471529     2.801458
 H     2.650717    -5.936332     1.081720
