 102
scf done:    -3810.728700
 C     0.484026     0.949779     3.396025
 H     1.083698     0.329456     4.071999
 H     0.881151     1.960849     3.258884
 C    -0.910931     0.724496     3.322300
 H    -1.357271    -0.061690     3.940086
 H    -1.594776     1.554971     3.120871
 H    -0.190015     1.439156     1.201303
Co    -0.010959     0.057434     1.654319
 C     1.980621     1.786427    -0.559862
 C     3.375669    -0.181671     1.010376
 C     1.604628    -1.062319    -1.031241
 C    -1.971600    -1.631190    -0.770313
 C    -3.348427     0.098155     1.027030
 C    -1.650399     1.239330    -0.989172
 P    -1.682795    -0.104991     0.273115
 P     1.703359     0.173725     0.328535
 C     0.281245    -1.563370     2.260047
 O     0.523894    -2.590110     2.722638
 H     1.078057     1.884337    -1.192545
 C     3.230370     1.843715    -1.438520
 H     3.270896     0.994458    -2.136872
 H     4.120892     1.752484    -0.793521
 C     3.297869     3.162589    -2.203848
 H     4.204900     3.188161    -2.829765
 H     2.437489     3.225725    -2.895199
 C     3.270556     4.354110    -1.254052
 H     3.277259     5.300379    -1.819563
 H     4.192227     4.348561    -0.644371
 C     2.058883     4.291933    -0.331919
 H     1.140597     4.413639    -0.932896
 H     2.076764     5.127436     0.386975
 C     1.977161     2.964840     0.414940
 H     2.838042     2.869146     1.101772
 H     1.069852     2.926082     1.036178
 C     3.659948     0.217109     2.318975
 H     2.871504     0.666704     2.922362
 C     4.386191    -0.784981     0.249399
 H     4.172357    -1.105389    -0.773346
 C     4.937127     0.025680     2.844956
 H     5.154520     0.341517     3.868279
 C     5.666518    -0.994418     0.767140
 C     6.733002    -1.660393    -0.053865
 H     6.403841    -1.814756    -1.090989
 H     7.656082    -1.060368    -0.075258
 H     6.997934    -2.645461     0.363612
 C     5.929763    -0.575378     2.078218
 H     6.926452    -0.728923     2.502100
 C     1.325025    -0.735444    -2.362539
 H     1.231300     0.305884    -2.669883
 C     1.703715    -2.415665    -0.680746
 H     1.917802    -2.685359     0.357494
 C     1.140878    -1.744849    -3.307321
 H     0.914519    -1.480025    -4.343388
 C     1.535875    -3.438108    -1.617181
 C     1.675285    -4.873949    -1.202406
 H     2.736441    -5.145736    -1.078260
 H     1.178424    -5.059537    -0.238426
 H     1.242522    -5.555041    -1.948679
 C     1.243162    -3.083775    -2.940717
 H     1.094473    -3.867509    -3.688492
 H    -1.121336    -1.629549    -1.476649
 C    -3.287028    -1.622941    -1.552156
 H    -3.398321    -0.699292    -2.139874
 H    -4.123845    -1.627410    -0.833243
 C    -3.399968    -2.846792    -2.456012
 H    -4.353682    -2.819501    -3.008198
 H    -2.596766    -2.816823    -3.215129
 C    -3.284958    -4.134469    -1.649688
 H    -3.330579    -5.013790    -2.312965
 H    -4.152564    -4.210945    -0.969526
 C    -1.999904    -4.151111    -0.831866
 H    -1.137175    -4.187305    -1.519242
 H    -1.946142    -5.061030    -0.211990
 C    -1.863823    -2.914828     0.052453
 H    -2.657167    -2.924601     0.821112
 H    -0.905687    -2.945446     0.587168
 C    -3.627727    -0.636262     2.185241
 H    -2.838238    -1.232791     2.646304
 C    -4.360468     0.880698     0.461301
 H    -4.156840     1.449732    -0.449254
 C    -4.900344    -0.594851     2.748606
 H    -5.114729    -1.176745     3.648410
 C    -5.637807     0.948663     1.027724
 C    -6.698105     1.825306     0.425894
 H    -6.767814     2.785543     0.963938
 H    -6.480962     2.053893    -0.627290
 H    -7.690135     1.352341     0.477114
 C    -5.896180     0.193663     2.177480
 H    -6.890604     0.227002     2.631688
 C    -1.437297     1.021145    -2.353215
 H    -1.366662     0.008698    -2.749564
 C    -1.726963     2.561991    -0.529721
 H    -1.877472     2.743304     0.538534
 C    -1.280509     2.102817    -3.221400
 H    -1.095407     1.920006    -4.282969
 C    -1.595801     3.655735    -1.387040
 C    -1.717992     5.056421    -0.860812
 H    -2.775420     5.364270    -0.803943
 H    -1.298737     5.141512     0.152382
 H    -1.199741     5.778382    -1.508112
 C    -1.355932     3.407587    -2.745550
 H    -1.227734     4.247975    -3.433306
