  98
scf done:    -4032.379525
 C    -0.490156     1.103197    -3.613488
 H    -0.877869     0.368600    -4.327798
 H    -1.144954     1.968286    -3.472762
 C     0.905062     1.228868    -3.439742
 H     1.588011     0.588641    -4.007857
 H     1.337822     2.201703    -3.185916
 H    -0.143460     1.674591    -1.322986
Co     0.070005     0.305824    -1.847277
 C    -1.656563     0.893180     1.011064
 C    -3.184226     0.980244    -1.414553
 C    -2.399754    -1.507419    -0.290997
 C     1.721837    -1.068983     0.747180
 C     3.416050    -0.125127    -1.343448
 C     2.216734     1.747034     0.433873
 P     1.798835     0.244383    -0.535866
 P    -1.721388     0.159390    -0.672719
 C     0.090783    -1.335049    -2.456979
 O     0.053548    -2.404238    -2.882025
 C    -1.013538     2.127054     1.200538
 H    -0.603471     2.652977     0.337453
 C    -2.166313     0.242647     2.137008
 H    -2.671155    -0.718914     2.028556
 C    -0.858081     2.674326     2.462921
 H    -0.333969     3.621005     2.606251
 C    -2.015828     0.778768     3.416747
 H    -2.415986     0.230544     4.270023
 C    -1.347913     1.996554     3.589039
 O    -1.133812     2.585673     4.781232
 C    -1.579047     1.941203     5.941255
 H    -1.107332     0.950410     6.066983
 H    -1.293107     2.580020     6.786500
 H    -2.675978     1.813552     5.946427
 C    -3.583420     0.584815    -2.698952
 H    -3.018514    -0.191058    -3.221302
 C    -3.916317     1.976140    -0.766344
 H    -3.630930     2.294075     0.238797
 C    -4.688773     1.163998    -3.307558
 H    -4.986679     0.833346    -4.306811
 C    -5.017010     2.565309    -1.389956
 H    -5.575130     3.345929    -0.865117
 C    -5.423864     2.172589    -2.667045
 C    -6.595707     2.816470    -3.348245
 H    -7.183572     3.427754    -2.649104
 H    -6.262979     3.474742    -4.167788
 H    -7.265649     2.063937    -3.791843
 C    -3.769888    -1.788789    -0.262768
 H    -4.490905    -1.010304    -0.522141
 C    -1.502949    -2.525257     0.055318
 H    -0.429255    -2.330762     0.043576
 C    -4.225345    -3.053885     0.102975
 H    -5.300918    -3.252598     0.117183
 C    -1.964716    -3.780710     0.432687
 H    -1.240546    -4.550731     0.713410
 C    -3.333930    -4.071754     0.459373
 C    -3.823615    -5.440928     0.829465
 H    -3.782130    -6.120637    -0.038206
 H    -3.205168    -5.888281     1.621853
 H    -4.866008    -5.417562     1.178305
 C     0.992845    -0.873277     1.933128
 H     0.597918     0.113948     2.176914
 C     2.198955    -2.353865     0.477950
 H     2.772254    -2.542097    -0.432750
 C     0.745804    -1.922328     2.803245
 H     0.168016    -1.769575     3.716512
 C     1.948718    -3.421437     1.341842
 H     2.334474    -4.408983     1.087803
 C     1.209225    -3.211988     2.510250
 O     0.894781    -4.177978     3.397714
 C     1.312632    -5.488153     3.140769
 H     2.413223    -5.569400     3.096244
 H     0.945601    -6.105392     3.970691
 H     0.892627    -5.876180     2.195321
 C     3.449028    -0.955267    -2.470009
 H     2.518992    -1.355345    -2.875871
 C     4.629636     0.378088    -0.860547
 H     4.639314     1.037234     0.009583
 C     4.656244    -1.288775    -3.077813
 H     4.651392    -1.947949    -3.950519
 C     5.832518     0.053166    -1.480794
 H     6.765979     0.462543    -1.083783
 C     5.871135    -0.786163    -2.599833
 C     7.166959    -1.106252    -3.284993
 H     8.008265    -1.109022    -2.576705
 H     7.130078    -2.087213    -3.780558
 H     7.395744    -0.356476    -4.060991
 C     2.799915     1.704944     1.705267
 H     3.025234     0.743318     2.170914
 C     1.971822     2.999039    -0.139912
 H     1.515625     3.046851    -1.131403
 C     3.089874     2.879992     2.393816
 H     3.531729     2.819951     3.392466
 C     2.274676     4.170562     0.546015
 H     2.070728     5.136303     0.074949
 C     2.824637     4.134159     1.833291
 C     3.092974     5.396503     2.598285
 H     2.221947     5.671861     3.216691
 H     3.950104     5.282499     3.277755
 H     3.295972     6.241732     1.924981
