  78
scf done:    -4043.108909
 C    -0.537920     0.384312    -3.338247
 H    -1.009503    -0.437053    -3.888613
 H    -1.112079     1.315346    -3.356500
 C     0.867109     0.416889    -3.218836
 H     1.472904    -0.378354    -3.665340
 H     1.388081     1.378119    -3.168626
 H    -0.068250     1.350166    -1.207351
Co     0.015654    -0.106448    -1.459169
 C    -1.566821     1.172634     1.261195
 C    -3.157070     0.919562    -1.104840
 C    -2.536876    -1.371364     0.453766
 C     1.651379    -1.085353     1.319828
 C     3.331942    -0.723148    -0.959846
 C     2.363261     1.557987     0.435508
 P     1.783201    -0.063079    -0.205007
 P    -1.739343     0.129941    -0.248532
 C    -0.123279    -1.830284    -1.742564
 O    -0.266546    -2.952018    -1.952546
 C    -2.103643     0.792087     2.497216
 C    -0.832899     2.363219     1.184076
 C    -1.130868     2.741216     3.549325
 C    -0.613962     3.141936     2.317119
 C    -1.883729     1.570805     3.632860
 H    -2.679388    -0.131157     2.580847
 H    -2.299915     1.254019     4.592369
 H    -0.948819     3.342546     4.443245
 H    -0.022571     4.057069     2.236007
 H    -0.408613     2.667194     0.226140
 C    -3.613539     0.331440    -2.293058
 H    -3.117111    -0.563299    -2.675272
 C    -3.797750     2.068470    -0.631794
 H    -3.462485     2.537979     0.295166
 C    -4.689785     0.867563    -2.989560
 H    -5.057562     0.416680    -3.912987
 C    -4.869384     2.626145    -1.328431
 H    -5.375793     3.525469    -0.973277
 C    -5.302009     2.016528    -2.497864
 F    -6.326355     2.541412    -3.165963
 C    -3.925653    -1.533371     0.534074
 H    -4.588866    -0.761860     0.137432
 C    -1.710265    -2.375064     0.975798
 H    -0.625202    -2.269253     0.925131
 C    -4.479304    -2.669808     1.118924
 H    -5.559660    -2.812057     1.182430
 C    -2.249009    -3.509150     1.573123
 H    -1.609365    -4.291126     1.985525
 C    -3.631031    -3.642830     1.633627
 F    -4.155302    -4.728887     2.196581
 C     2.033114    -2.433151     1.301511
 C     0.994565    -0.586678     2.454425
 C     1.101526    -2.759138     3.509475
 C     0.726187    -1.416603     3.539735
 C     1.757758    -3.263248     2.387447
 H     2.548021    -2.842852     0.429711
 H     2.062350    -4.312110     2.354314
 H     0.884493    -3.410711     4.359125
 H     0.208389    -1.007243     4.410306
 H     0.679191     0.457091     2.491274
 C     3.246597    -1.751270    -1.907824
 H     2.270269    -2.132868    -2.208260
 C     4.601168    -0.245064    -0.609365
 H     4.699871     0.565759     0.114338
 C     4.389829    -2.307244    -2.474707
 H     4.329669    -3.111818    -3.209642
 C     5.753295    -0.780685    -1.177584
 H     6.745438    -0.409392    -0.914607
 C     5.632563    -1.810304    -2.102603
 F     6.730222    -2.326884    -2.647792
 C     3.007773     1.709867     1.669772
 H     3.168979     0.842976     2.313549
 C     2.192223     2.688208    -0.373050
 H     1.685048     2.579739    -1.334249
 C     3.443741     2.959896     2.102187
 H     3.935214     3.091381     3.067812
 C     2.631880     3.942013     0.038520
 H     2.499755     4.828657    -0.584138
 C     3.245850     4.062295     1.280200
 F     3.653384     5.260178     1.690278
