  62
scf done:    -2887.225739
 C    -0.672080     2.378884     1.653260
 H    -0.662994     3.364262     1.174067
 H    -1.624190     2.133266     2.135391
 C     0.530759     1.845403     2.173316
 H     1.456648     2.426832     2.101139
 H     0.489739     1.190324     3.049699
 H    -0.730599    -0.061200     1.323547
Co     0.018080     0.905649     0.469560
 C    -3.014336    -0.497816    -0.301895
 C    -2.569431     2.230936    -1.195852
 C    -1.305428     0.100824    -2.555585
 C     2.976803    -0.651788    -0.228354
 C     1.641689    -1.460227     2.210079
 C     0.630736    -2.332801    -0.281121
 P     1.282855    -0.815501     0.529480
 P    -1.670618     0.668624    -0.842714
 C     0.929690     1.857431    -0.669710
 O     1.521669     2.431461    -1.477352
 H    -2.465037    -1.442994    -0.128828
 C    -4.116204    -0.765857    -1.327061
 H    -3.689860    -1.131113    -2.273831
 H    -4.638551     0.179229    -1.560661
 C    -5.132263    -1.778040    -0.801327
 H    -5.931308    -1.929025    -1.545443
 H    -4.632889    -2.756498    -0.679954
 C    -5.720967    -1.347881     0.536667
 H    -6.421160    -2.111827     0.911872
 H    -6.314524    -0.426751     0.392022
 C    -4.622576    -1.078485     1.558206
 H    -4.098279    -2.023812     1.788488
 H    -5.055691    -0.725533     2.508123
 C    -3.611511    -0.062795     1.037631
 H    -4.115231     0.912671     0.910928
 H    -2.800298     0.091879     1.765391
 H    -2.906636     2.680727    -0.252094
 H    -1.859131     2.930133    -1.661388
 H    -3.428719     2.090903    -1.869081
 H    -2.168741     0.180223    -3.232586
 H    -0.485010     0.718256    -2.950022
 H    -0.962674    -0.943790    -2.532880
 H     2.758359    -0.265485    -1.242758
 C     3.792960    -1.935392    -0.376748
 H     3.231443    -2.693699    -0.944047
 H     3.985822    -2.367521     0.621838
 C     5.127436    -1.665269    -1.070047
 H     5.711736    -2.597516    -1.138845
 H     4.930535    -1.344885    -2.109169
 C     5.929897    -0.582881    -0.357550
 H     6.865473    -0.377939    -0.902868
 H     6.227178    -0.951233     0.641392
 C     5.113360     0.693930    -0.194861
 H     4.908498     1.131478    -1.188381
 H     5.686922     1.450271     0.365020
 C     3.787959     0.418895     0.506157
 H     3.991407     0.072459     1.535642
 H     3.198203     1.342425     0.602582
 H     2.102965    -0.669601     2.817037
 H     0.686125    -1.729883     2.681999
 H     2.301003    -2.340975     2.191230
 H     1.232052    -3.226764    -0.059523
 H    -0.396810    -2.497328     0.073302
 H     0.600200    -2.183447    -1.370383
