 114
scf done:    -3967.867150
 C    -0.654496     1.936008    -2.604358
 H    -1.273363     1.611444    -3.447360
 H    -1.073156     2.780568    -2.046755
 C     0.746776     1.789900    -2.678761
 H     1.190645     1.327753    -3.567920
 H     1.393443     2.519901    -2.187846
 H    -0.060468     1.466973    -0.331973
Co    -0.043959     0.433598    -1.395977
 C    -3.305673     0.885110    -0.723389
 C    -2.301967    -1.889815    -0.386427
 C    -1.722205     0.065276     1.598982
 C     1.719427    -1.500977     0.778212
 C     3.146939    -0.512173    -1.672799
 C     2.640012     1.202945     0.627415
 P     1.812182    -0.083364    -0.432737
 P    -1.786306    -0.088234    -0.255129
 C    -0.118449    -0.874802    -2.544743
 O    -0.169333    -1.752537    -3.292766
 H    -2.901419     1.912668    -0.784566
 C    -4.497170     0.893070     0.237418
 H    -4.193585     1.208242     1.247259
 H    -4.902000    -0.125674     0.341398
 C    -5.594802     1.825673    -0.270919
 H    -6.454582     1.801009     0.418326
 H    -5.219091     2.865609    -0.262194
 C    -6.034430     1.467585    -1.685698
 H    -6.802240     2.174182    -2.040622
 H    -6.510771     0.469802    -1.672541
 C    -4.847116     1.440054    -2.641304
 H    -4.431312     2.458864    -2.741670
 H    -5.169154     1.135293    -3.650391
 C    -3.755997     0.503701    -2.136236
 H    -4.151609    -0.524247    -2.124295
 H    -2.890511     0.504312    -2.813341
 H    -2.328198    -2.100466    -1.465842
 H    -1.426407    -2.431676     0.003660
 C    -3.553752    -2.376111     0.278075
 C    -3.599976    -2.629862     1.656571
 H    -2.695026    -2.524931     2.258811
 C    -4.717790    -2.591845    -0.467162
 H    -4.686998    -2.444075    -1.550488
 C    -4.787822    -3.026054     2.262813
 H    -4.809874    -3.217232     3.338542
 C    -5.923868    -2.982879     0.123980
 C    -7.156601    -3.153963    -0.715721
 H    -7.516237    -2.180919    -1.089537
 H    -6.957621    -3.783663    -1.596417
 H    -7.974819    -3.614612    -0.144888
 C    -5.947737    -3.187556     1.506668
 H    -6.878375    -3.493243     1.992111
 H    -2.736496    -0.120245     1.984756
 H    -1.107866    -0.783591     1.934711
 C    -1.165889     1.330388     2.180112
 C    -1.767000     2.578790     1.973574
 H    -2.647544     2.664314     1.335642
 C    -0.035408     1.274990     3.003822
 H     0.436504     0.304298     3.186451
 C    -1.254601     3.718387     2.588299
 H    -1.741245     4.683030     2.425673
 C     0.510332     2.412476     3.608120
 C     1.771345     2.321704     4.415994
 H     1.943778     1.300495     4.785342
 H     2.642893     2.603414     3.800821
 H     1.750290     3.002224     5.279787
 C    -0.124418     3.641097     3.398262
 H     0.277216     4.544568     3.864768
 H     0.840419    -1.187264     1.372528
 C     2.868964    -1.726352     1.763232
 H     3.114523    -0.796544     2.298160
 H     3.778556    -2.025026     1.218817
 C     2.504400    -2.811627     2.774424
 H     3.348759    -2.981949     3.462040
 H     1.662427    -2.458098     3.398963
 C     2.104365    -4.113658     2.090509
 H     1.816953    -4.870580     2.838243
 H     2.980723    -4.520903     1.553840
 C     0.974004    -3.888945     1.092766
 H     0.060158    -3.585812     1.638098
 H     0.723586    -4.827154     0.571507
 C     1.341261    -2.808727     0.081924
 H     2.198061    -3.158612    -0.513947
 H     0.519720    -2.639762    -0.629780
 H     2.637460    -1.107909    -2.444204
 H     3.380280     0.457655    -2.141552
 C     4.380242    -1.219722    -1.200446
 C     5.414497    -0.558174    -0.523348
 H     5.373395     0.522904    -0.384604
 C     4.513161    -2.597987    -1.407292
 H     3.741991    -3.120138    -1.981619
 C     6.501722    -1.268429    -0.023164
 H     7.297369    -0.737785     0.505542
 C     5.591326    -3.332366    -0.903468
 C     5.654987    -4.819446    -1.099944
 H     4.975662    -5.336599    -0.401431
 H     5.349278    -5.104249    -2.117757
 H     6.667741    -5.208580    -0.924281
 C     6.584448    -2.648778    -0.194650
 H     7.438467    -3.199828     0.208183
 H     2.036245     1.222938     1.545963
 H     3.643512     0.842380     0.893778
 C     2.689695     2.575192     0.031127
 C     3.755618     2.988804    -0.778517
 H     4.604216     2.323621    -0.952069
 C     1.629399     3.461980     0.240037
 H     0.796024     3.148517     0.870056
 C     3.739005     4.244849    -1.378149
 H     4.572612     4.554473    -2.013162
 C     1.592353     4.724034    -0.360951
 C     0.420781     5.633120    -0.128402
 H     0.363983     5.943769     0.927195
 H     0.482645     6.539597    -0.746747
 H    -0.525500     5.121168    -0.362000
 C     2.660707     5.104724    -1.178897
 H     2.647761     6.084863    -1.663266
