 106
scf done:    -4111.382051
 C    -0.606550    -2.432193    -2.595021
 H    -1.153471    -3.358606    -2.383947
 H    -1.089290    -1.798715    -3.346407
 C     0.804397    -2.435979    -2.476491
 H     1.309358    -3.360902    -2.177945
 H     1.415040    -1.802912    -3.127911
 H     0.045199    -0.286540    -1.907272
Co    -0.016028    -1.404813    -0.962161
 C    -2.115196     1.326737    -1.085930
 C    -3.359586    -1.104700    -0.155923
 C    -1.503177     0.216740     1.530289
 C     2.095063    -0.135976     1.594949
 C     3.319539    -0.729011    -0.911106
 C     1.539877     1.509525    -0.721543
 P     1.685096    -0.255632    -0.227013
 P    -1.723180    -0.277812    -0.224625
 C    -0.172045    -2.780331     0.115605
 O    -0.326260    -3.721797     0.761669
 H    -1.209711     1.937428    -0.911130
 C    -3.341261     2.071206    -0.557458
 H    -3.291946     2.208075     0.533132
 H    -4.238252     1.457642    -0.748254
 C    -3.501042     3.419597    -1.254742
 H    -4.385594     3.946002    -0.859991
 H    -2.626151     4.054907    -1.021211
 C    -3.609488     3.248887    -2.765122
 H    -3.683910     4.230263    -3.261764
 H    -4.545605     2.709381    -2.997421
 C    -2.424681     2.463024    -3.313776
 H    -1.506015     3.062520    -3.188580
 H    -2.542189     2.294151    -4.396688
 C    -2.241156     1.128671    -2.597264
 H    -3.105962     0.471495    -2.803915
 H    -1.348763     0.607680    -2.975165
 C    -4.330362    -0.794647     0.811871
 H    -4.103909    -0.067284     1.594738
 C    -3.682877    -2.052118    -1.128561
 H    -2.932003    -2.320287    -1.872146
 C    -5.573410    -1.406130     0.799108
 H    -6.329044    -1.174663     1.552290
 C    -4.933369    -2.669459    -1.160398
 H    -5.143396    -3.404963    -1.937197
 C    -5.889014    -2.348453    -0.191122
 O    -7.120261    -2.890829    -0.125652
 C    -7.488395    -3.845211    -1.081347
 H    -6.835587    -4.735232    -1.045987
 H    -8.515635    -4.149339    -0.843458
 H    -7.467009    -3.431429    -2.105100
 C    -1.482288    -0.801647     2.502140
 H    -1.715151    -1.829818     2.214033
 C    -1.210827     1.514390     1.948396
 H    -1.220802     2.336533     1.232854
 C    -1.158739    -0.534235     3.819700
 H    -1.136480    -1.326790     4.569886
 C    -0.863425     1.799374     3.273101
 H    -0.624743     2.826616     3.550390
 C    -0.820939     0.769644     4.215113
 O    -0.456906     0.923759     5.503727
 C    -0.038023     2.187002     5.937252
 H    -0.841814     2.939401     5.851356
 H     0.237474     2.082626     6.994202
 H     0.842420     2.541116     5.371718
 H     1.232231     0.402766     2.026256
 C     3.381364     0.632099     1.905408
 H     3.384174     1.621743     1.424385
 H     4.234197     0.082378     1.472134
 C     3.592080     0.769429     3.410220
 H     4.519468     1.330562     3.611510
 H     2.765013     1.363391     3.842534
 C     3.635355    -0.597116     4.082394
 H     3.752782    -0.490576     5.173334
 H     4.526692    -1.143295     3.723831
 C     2.383281    -1.402647     3.759534
 H     1.512085    -0.912563     4.226862
 H     2.447157    -2.410385     4.201405
 C     2.140487    -1.513641     2.256440
 H     2.949950    -2.110041     1.797977
 H     1.204613    -2.057120     2.071538
 C     4.292178     0.197151    -1.317967
 H     4.070630     1.266411    -1.287682
 C     3.646498    -2.086432    -0.959159
 H     2.896453    -2.823683    -0.665470
 C     5.538790    -0.221310    -1.758370
 H     6.296630     0.494591    -2.082450
 C     4.900496    -2.522468    -1.383917
 H     5.113491    -3.591441    -1.404669
 C     5.856797    -1.586125    -1.792604
 O     7.091120    -1.900837    -2.232454
 C     7.462382    -3.249032    -2.291374
 H     6.814442    -3.824598    -2.975933
 H     8.491615    -3.276261    -2.671258
 H     7.437311    -3.726710    -1.295827
 C     1.510618     1.807566    -2.097422
 H     1.702966     1.012549    -2.822321
 C     1.289122     2.552221     0.167886
 H     1.309628     2.373930     1.242942
 C     1.215590     3.077922    -2.555850
 H     1.187211     3.304495    -3.623250
 C     0.963600     3.838352    -0.277995
 H     0.750865     4.616414     0.455709
 C     0.908967     4.103816    -1.647313
 O     0.565698     5.290536    -2.185439
 C     0.184222     6.330964    -1.330331
 H     1.005077     6.631286    -0.655331
 H    -0.079019     7.183748    -1.968644
 H    -0.694940     6.056288    -0.720395
