  82
scf done:    -3423.127586
 C    -3.118157     0.882385    -2.357926
 H    -3.738170     1.751575    -2.110808
 H    -2.598794     0.979149    -3.317194
 C    -3.519496    -0.400475    -1.903811
 H    -4.436039    -0.492086    -1.309740
 H    -3.306653    -1.279892    -2.519771
 H    -1.147659    -0.387037    -1.971670
Co    -1.918244     0.248975    -0.881536
 C     1.360684     0.689041    -1.479531
 C    -0.263967     2.932310    -2.155101
 C     0.295598     2.361676     0.621875
 C    -0.222822    -0.996752     1.711244
 C    -2.440235    -2.615911     1.003992
 C    -0.095607    -2.598386    -0.689574
 P    -1.212726    -1.465021     0.233879
 P    -0.184002     1.531042    -0.954703
 C    -2.777519     1.062533     0.405657
 O    -3.324520     1.621335     1.253500
 C     1.401172     0.096413    -2.754865
 H     0.541109     0.194777    -3.422155
 C     2.465675     0.505282    -0.648767
 H     2.479549     0.935114     0.352808
 C     2.489090    -0.650382    -3.171816
 H     2.514997    -1.116338    -4.158609
 C     3.566302    -0.259594    -1.046370
 H     4.400082    -0.386541    -0.355196
 C     3.581349    -0.849215    -2.312719
 O     4.581993    -1.616559    -2.787057
 C     5.682513    -1.873158    -1.961389
 H     5.386818    -2.398251    -1.035469
 H     6.362239    -2.517916    -2.532661
 H     6.216688    -0.946242    -1.687229
 H     0.727133     3.412439    -2.219761
 H    -0.465899     2.478204    -3.139177
 C    -1.350812     3.944067    -1.817788
 H    -1.115296     4.435090    -0.858024
 H    -2.297041     3.403958    -1.656888
 C    -1.529771     4.999648    -2.897443
 H    -0.599062     5.564923    -3.066757
 H    -1.815883     4.539655    -3.856820
 H    -2.315054     5.722216    -2.627570
 H    -0.644914     2.757782     1.039693
 H     0.577338     1.545721     1.307172
 C     1.364180     3.447621     0.606340
 H     0.983460     4.336025     0.075858
 H     2.243441     3.114762     0.031071
 C     1.791072     3.836287     2.015170
 H     0.932785     4.203131     2.601243
 H     2.208711     2.971426     2.556761
 H     2.553928     4.629848     2.006357
 C     1.171432    -1.134235     1.777641
 H     1.711884    -1.652246     0.984853
 C    -0.853340    -0.315338     2.759508
 H    -1.935807    -0.168282     2.743647
 C     1.903848    -0.582185     2.820579
 H     2.991217    -0.674583     2.859602
 C    -0.134903     0.239410     3.816171
 H    -0.671231     0.777484     4.597928
 C     1.260651     0.128078     3.840816
 O     2.053952     0.673138     4.785025
 C     1.463969     1.436421     5.800484
 H     0.767995     0.837758     6.414019
 H     2.280638     1.794676     6.439821
 H     0.920506     2.307333     5.393146
 H    -1.898887    -3.313569     1.665574
 H    -3.078601    -1.994946     1.654495
 C    -3.304265    -3.371339     0.003985
 H    -2.661862    -3.969346    -0.665180
 H    -3.819522    -2.646827    -0.643378
 C    -4.317379    -4.282275     0.679874
 H    -3.821745    -5.036100     1.312815
 H    -4.999534    -3.707121     1.326384
 H    -4.932444    -4.818551    -0.058812
 H    -0.623401    -2.807985    -1.634366
 H     0.764424    -1.976421    -0.990377
 C     0.357831    -3.889008    -0.020387
 H    -0.501426    -4.571743     0.086697
 H     0.704351    -3.686587     1.006545
 C     1.463498    -4.578738    -0.806457
 H     1.134978    -4.817925    -1.830435
 H     2.350095    -3.929504    -0.895577
 H     1.779120    -5.518038    -0.327130
