 102
scf done:    -4207.484680
 C     0.289670     2.349120    -2.558240
 H    -0.191196     2.080528    -3.505787
 H    -0.147711     3.227723    -2.076067
 C     1.659482     2.071155    -2.367677
 H     2.227405     1.582286    -3.167018
 H     2.255926     2.733875    -1.734957
 H     0.589881     1.694681    -0.173902
Co     0.520363     0.764162    -1.319907
 C    -2.102441     1.914425     0.603002
 C    -2.752674     0.784878    -2.032169
 C    -1.849740    -0.992301     0.227693
 C     1.735177    -1.650099     0.829749
 C     3.560251    -0.529162    -1.271172
 C     2.873711     0.930556     1.175559
 P     2.108247    -0.113881    -0.166708
 P    -1.512846     0.643898    -0.623864
 C     0.339109    -0.494206    -2.508754
 O     0.165125    -1.336533    -3.281259
 H    -1.615658     1.578603     1.539112
 C    -3.612672     1.979196     0.842380
 H    -4.042767     0.985895     1.021751
 H    -4.095541     2.374873    -0.068166
 C    -3.935432     2.913109     2.005801
 H    -5.025274     2.950745     2.164679
 H    -3.504173     2.490421     2.931122
 C    -3.381637     4.313558     1.770658
 H    -3.571933     4.957584     2.644485
 H    -3.920261     4.774646     0.922924
 C    -1.892045     4.276042     1.447266
 H    -1.332555     3.950009     2.343871
 H    -1.525100     5.286901     1.204391
 C    -1.582398     3.320161     0.300059
 H    -2.059797     3.691910    -0.625113
 H    -0.502650     3.285785     0.099130
 H    -3.160376     1.805232    -1.980776
 H    -2.129459     0.752600    -2.935583
 C    -3.851978    -0.225281    -2.145741
 C    -3.582588    -1.496579    -2.675031
 H    -2.568894    -1.735000    -3.010204
 C    -5.167017     0.060688    -1.760020
 H    -5.408022     1.045601    -1.355387
 C    -4.582408    -2.458330    -2.796011
 H    -4.377558    -3.447711    -3.208848
 C    -6.181688    -0.885374    -1.881706
 H    -7.208407    -0.663910    -1.584984
 C    -5.874544    -2.139646    -2.393690
 F    -6.838536    -3.051934    -2.510721
 H    -1.968578    -1.720879    -0.587958
 H    -0.873962    -1.203323     0.680966
 C    -2.917506    -1.158785     1.262523
 C    -2.674507    -0.780686     2.590622
 H    -1.689556    -0.396064     2.869506
 C    -4.172513    -1.695187     0.950577
 H    -4.376132    -2.028878    -0.067498
 C    -3.661844    -0.878771     3.566658
 H    -3.479640    -0.579499     4.600363
 C    -5.171500    -1.803714     1.913779
 H    -6.152731    -2.215842     1.671383
 C    -4.907975    -1.380258     3.210410
 F    -5.861997    -1.473514     4.136206
 H     0.861003    -1.303802     1.417584
 C     2.765666    -2.151176     1.847415
 H     3.078105    -1.341047     2.522835
 H     3.673184    -2.493924     1.328194
 C     2.193402    -3.304930     2.668530
 H     2.951608    -3.664928     3.382645
 H     1.345257    -2.935978     3.274429
 C     1.714050    -4.445650     1.779368
 H     1.282853    -5.255438     2.389704
 H     2.582563    -4.879826     1.251699
 C     0.700586    -3.952803     0.753680
 H    -0.215780    -3.619489     1.274607
 H     0.394367    -4.773210     0.084699
 C     1.256284    -2.793668    -0.066383
 H     2.104709    -3.153968    -0.671072
 H     0.501201    -2.432194    -0.779241
 H     3.103529    -0.990087    -2.159344
 H     3.918901     0.458212    -1.602643
 C     4.677296    -1.384756    -0.759021
 C     5.670298    -0.888264     0.096925
 H     5.677508     0.169016     0.367583
 C     4.749713    -2.737786    -1.119389
 H     4.014275    -3.144719    -1.817836
 C     6.662518    -1.713483     0.619404
 H     7.432310    -1.327620     1.290024
 C     5.733410    -3.579887    -0.609431
 H     5.785657    -4.633979    -0.887808
 C     6.674002    -3.057720     0.269681
 F     7.615967    -3.855294     0.769619
 H     2.172398     0.844553     2.020601
 H     3.814286     0.458121     1.493057
 C     3.076079     2.373015     0.833391
 C     2.101021     3.321257     1.167991
 H     1.217286     3.004151     1.725608
 C     4.211583     2.817254     0.145145
 H     4.999112     2.109623    -0.123167
 C     2.230024     4.658139     0.805748
 H     1.467287     5.395953     1.061399
 C     4.363052     4.152157    -0.222638
 H     5.244801     4.500441    -0.763026
 C     3.361341     5.056731     0.104341
 F     3.494654     6.334447    -0.247717
