  58
scf done:    -3108.877697
 C     4.424096    -0.338216    -0.932500
 H     4.495796    -0.240498    -2.022034
 H     5.061312     0.367620    -0.388885
 C     4.149238    -1.610409    -0.364384
 H     4.012243    -2.475150    -1.023351
 H     4.577648    -1.868068     0.609696
 H     3.148334     0.019754     1.056879
Co     2.549509    -0.411464    -0.229759
 C     0.172782     1.974451    -0.080178
 C     2.761509     2.785872     0.871471
 C     2.291948     2.508588    -1.905314
 C    -0.544022    -1.490358     0.789266
 C     1.655920    -3.081170     1.631005
 C     1.194164    -0.564480     2.851334
 P     1.241794    -1.346007     1.194760
 P     1.960390     1.648188    -0.316470
 C     1.795223    -0.916696    -1.721310
 O     1.297015    -1.225034    -2.715291
 C    -0.355763     2.676497     1.011814
 H     0.308405     3.128583     1.751883
 C    -0.729620     1.417721    -0.995187
 H    -0.359214     0.831612    -1.840311
 C    -1.728114     2.813999     1.182109
 H    -2.142800     3.352598     2.036454
 C    -2.104472     1.566846    -0.850990
 H    -2.769090     1.105364    -1.580976
 C    -2.616005     2.259203     0.253416
 O    -3.928566     2.420726     0.507944
 C    -4.864518     1.897616    -0.397530
 H    -4.804984     0.797786    -0.462393
 H    -5.855019     2.176422    -0.015813
 H    -4.739646     2.329466    -1.406297
 H     2.574075     2.444778     1.898927
 H     3.845519     2.725683     0.698101
 H     2.426047     3.827271     0.751978
 H     1.973174     3.561468    -1.879013
 H     3.370193     2.446478    -2.114102
 H     1.761534     1.988477    -2.715612
 C    -1.556907    -0.876312     1.539527
 H    -1.313521    -0.296728     2.430823
 C    -0.922401    -2.196839    -0.356731
 H    -0.163087    -2.676222    -0.979390
 C    -2.888062    -0.959698     1.157349
 H    -3.670092    -0.460584     1.732694
 C    -2.254757    -2.294525    -0.752337
 H    -2.500881    -2.850856    -1.657020
 C    -3.247986    -1.663900     0.004095
 O    -4.562634    -1.659644    -0.316862
 C    -4.981550    -2.372778    -1.447140
 H    -4.744928    -3.447767    -1.362938
 H    -6.070687    -2.253474    -1.509682
 H    -4.525226    -1.982014    -2.374037
 H     1.593517    -3.701053     0.725633
 H     2.695490    -3.112139     1.988021
 H     0.978847    -3.484379     2.399199
 H     0.522607    -1.089087     3.547188
 H     2.218198    -0.572898     3.249194
 H     0.875989     0.483483     2.751286
