  50
scf done:    -3078.364101
 C     4.137323    -0.215484    -0.615175
 H     4.316824    -0.051000    -1.683886
 H     4.696472     0.468473     0.032238
 C     3.835813    -1.522638    -0.153091
 H     3.785489    -2.348896    -0.870856
 H     4.165446    -1.829455     0.844780
 H     2.649534     0.000805     1.246483
Co     2.199855    -0.363409    -0.118642
 C    -0.220705     1.966326    -0.050108
 C     2.260344     2.774610     1.159113
 C     2.028563     2.639287    -1.658806
 C    -0.952663    -1.566410     0.507519
 C     1.187827    -3.178003     1.444089
 C     0.554915    -0.768730     2.796573
 P     0.783001    -1.420565     1.099782
 P     1.591013     1.687506    -0.150533
 C     1.616314    -0.785541    -1.710597
 O     1.228569    -1.032310    -2.768172
 C    -1.024585     1.461295    -1.085260
 H    -0.565794     0.955751    -1.938755
 C    -0.849077     2.567159     1.045662
 H    -0.257346     2.973108     1.868788
 C    -2.408062     1.567290    -1.040529
 H    -3.039238     1.168764    -1.836420
 C    -2.239846     2.660842     1.116036
 H    -2.740196     3.119374     1.971029
 C    -2.999636     2.157865     0.070829
 F    -4.328611     2.219594     0.142307
 H     1.996738     2.374127     2.147659
 H     3.356242     2.744642     1.075738
 H     1.912534     3.814603     1.065907
 H     1.683948     3.682843    -1.605059
 H     3.121860     2.610711    -1.776452
 H     1.584038     2.153568    -2.539013
 C    -2.046387    -1.031520     1.197858
 H    -1.903589    -0.510892     2.145536
 C    -1.190759    -2.202875    -0.719754
 H    -0.358036    -2.615360    -1.294151
 C    -3.339213    -1.123904     0.686056
 H    -4.193032    -0.686831     1.206742
 C    -2.475249    -2.310426    -1.240972
 H    -2.665717    -2.804123    -2.195618
 C    -3.536960    -1.763761    -0.528717
 F    -4.767544    -1.846139    -1.031458
 H     1.230039    -3.728895     0.494091
 H     2.186727    -3.221224     1.901632
 H     0.446670    -3.647847     2.108092
 H     0.228610     0.280249     2.745867
 H    -0.170352    -1.354182     3.381034
 H     1.534913    -0.795302     3.292554
