  90
scf done:    -3502.263974
 C    -0.893324     0.443239    -3.221766
 H    -1.247982    -0.433981    -3.771740
 H    -1.656150     1.215222    -3.089371
 C     0.473471     0.783719    -3.232233
 H     1.192314     0.174210    -3.788349
 H     0.773998     1.829880    -3.125637
 H    -0.364560     1.321576    -1.059481
Co    -0.030679    -0.055389    -1.456625
 C    -2.176547     1.030737     0.911491
 O    -3.113361    -0.518716    -1.182575
 O    -1.886118    -1.567813     0.825652
 C     2.147830    -0.778148     1.081309
 O     3.052685     0.390263    -1.258513
 O     1.814748     1.748804     0.562722
 P     1.702279     0.354799    -0.315985
 P    -1.754493    -0.330137    -0.268708
 C     0.332388    -1.682956    -1.983071
 O     0.554336    -2.731084    -2.403589
 H    -1.178145     1.269770     1.328661
 C    -3.086257     0.670739     2.085969
 H    -2.679232    -0.199495     2.618636
 H    -4.079470     0.368348     1.713052
 C    -3.249171     1.859620     3.028568
 H    -3.923945     1.593199     3.858469
 H    -2.270215     2.091510     3.487197
 C    -3.763091     3.094350     2.297464
 H    -3.847702     3.947009     2.990737
 H    -4.784642     2.895178     1.924826
 C    -2.862682     3.451630     1.120274
 H    -1.873978     3.761832     1.503292
 H    -3.268695     4.316782     0.571269
 C    -2.683712     2.270531     0.172450
 H    -3.645333     2.032585    -0.309317
 H    -1.995181     2.531728    -0.647587
 C    -4.349658    -1.121443    -0.797997
 H    -4.234174    -1.561476     0.207468
 C    -4.648711    -2.225289    -1.795524
 H    -3.847099    -2.974651    -1.803565
 H    -4.731607    -1.802870    -2.808612
 H    -5.594990    -2.730165    -1.548694
 C    -5.451485    -0.077797    -0.782988
 H    -5.272936     0.695901    -0.024316
 H    -5.517653     0.413644    -1.765677
 H    -6.422053    -0.548270    -0.564393
 C    -1.102393    -2.753985     0.799550
 H    -0.096773    -2.490650     0.429426
 C    -1.707342    -3.789912    -0.125879
 H    -1.770229    -3.408194    -1.153920
 H    -2.718720    -4.065623     0.211087
 H    -1.086299    -4.697811    -0.144974
 C    -0.996175    -3.236008     2.232004
 H    -0.531015    -2.467397     2.866605
 H    -1.996842    -3.454688     2.635494
 H    -0.389950    -4.151817     2.291420
 H     1.158523    -0.947194     1.550653
 C     3.071574    -0.210689     2.160268
 H     2.654286     0.728381     2.548219
 H     4.049499     0.045267     1.719020
 C     3.283058    -1.218301     3.286073
 H     3.967439    -0.799599     4.042019
 H     2.320185    -1.390774     3.801416
 C     3.813338    -2.547096     2.761026
 H     3.937659    -3.267550     3.585786
 H     4.819741    -2.391223     2.330891
 C     2.892729    -3.117795     1.689284
 H     1.922850    -3.377105     2.148894
 H     3.304681    -4.055687     1.282903
 C     2.658896    -2.122544     0.557394
 H     3.599968    -1.957539     0.009228
 H     1.960929    -2.547738    -0.179029
 C     4.289569     1.059653    -1.012931
 H     4.181392     1.687967    -0.111763
 C     4.574265     1.943708    -2.213274
 H     3.764410     2.667006    -2.370990
 H     4.660162     1.326445    -3.120527
 H     5.515500     2.497528    -2.076911
 C     5.398514     0.044424    -0.804300
 H     5.232147    -0.567665     0.091999
 H     5.460142    -0.628620    -1.673019
 H     6.367343     0.554024    -0.691134
 C     1.108636     2.964469     0.353079
 H     0.072380     2.713694     0.068281
 C     1.723550     3.774321    -0.769000
 H     1.691812     3.208698    -1.710679
 H     2.771307     4.026258    -0.543362
 H     1.165776     4.711344    -0.915996
 C     1.103421     3.693031     1.681149
 H     0.631574     3.074582     2.458810
 H     2.132332     3.920681     2.000085
 H     0.546305     4.638243     1.602551
