  62
scf done:    -3409.626308
 C     0.234255    -3.869480     0.878351
 H     0.814740    -4.110178     1.774466
 H    -0.842063    -4.012220     1.002208
 C     0.831784    -3.965363    -0.394981
 H     1.871464    -4.297899    -0.477333
 H     0.219207    -4.209264    -1.268201
 H    -0.678479    -2.135698    -0.497527
Co     0.633629    -2.022731     0.164692
 C    -2.083872    -0.054695     0.638679
 O    -1.345884    -1.786809     2.568128
 O    -0.117996     0.438902     2.237213
 C     1.614908     0.944383    -0.995827
 O     2.281868    -1.082261    -2.495842
 O    -0.164190    -0.254685    -2.433072
 P     1.062819    -0.718552    -1.446879
 P    -0.640649    -0.879867     1.388734
 C     2.206694    -1.908779     0.931142
 O     3.251738    -1.876719     1.409659
 C    -3.006357    -0.828050    -0.083282
 H    -2.849605    -1.906167    -0.177422
 C    -2.313193     1.316616     0.751682
 H    -1.609032     1.923647     1.322630
 C    -4.110997    -0.247215    -0.682737
 H    -4.834420    -0.840867    -1.244775
 C    -3.414874     1.918410     0.142729
 H    -3.556446     2.994808     0.243328
 C    -4.320683     1.137291    -0.583056
 O    -5.409846     1.619035    -1.209679
 C    -5.669311     2.994156    -1.154346
 H    -4.851901     3.584186    -1.604967
 H    -6.588413     3.164301    -1.729074
 H    -5.827424     3.340797    -0.117894
 C    -2.276682    -1.224418     3.466338
 H    -1.851377    -0.355632     3.994125
 H    -3.195796    -0.903328     2.947224
 H    -2.533040    -2.002018     4.199135
 C     1.214159     0.551810     2.678477
 H     1.537120    -0.334176     3.248780
 H     1.903021     0.708314     1.833514
 H     1.262902     1.430468     3.336861
 C     0.696564     1.987590    -0.815984
 H    -0.351106     1.828950    -1.076631
 C     2.955439     1.165961    -0.677002
 H     3.684563     0.365571    -0.822644
 C     1.109995     3.212747    -0.317659
 H     0.406101     4.034883    -0.174258
 C     3.384088     2.395223    -0.178026
 H     4.439337     2.536959     0.055907
 C     2.456389     3.426890     0.011306
 O     2.764659     4.645954     0.495229
 C     4.094138     4.921005     0.836302
 H     4.768079     4.837087    -0.034512
 H     4.117740     5.954722     1.203897
 H     4.461406     4.250685     1.633635
 C     2.713893    -2.406763    -2.702331
 H     3.160497    -2.835097    -1.791437
 H     1.895493    -3.069042    -3.027636
 H     3.476754    -2.374000    -3.492990
 C    -1.017456    -1.187824    -3.045412
 H    -0.567175    -1.581538    -3.972441
 H    -1.242513    -2.029540    -2.367484
 H    -1.956242    -0.673003    -3.292264
