  98
scf done:    -3508.489157
 C     0.577915     3.338469    -1.101718
 H     1.289235     3.960006    -0.546075
 H     0.869610     3.172049    -2.144045
 C    -0.796925     3.388854    -0.757327
 H    -1.119572     4.040416     0.062857
 H    -1.550803     3.263342    -1.540580
 H    -0.359123     1.191081    -1.525134
Co     0.022226     1.650595    -0.171652
 C     1.100346    -1.175828    -1.645299
 C     3.066026     0.883544    -1.473788
 C     2.346383    -0.597454     0.893267
 C    -1.153588    -0.887926     1.656720
 C    -3.099838     1.132706     1.262706
 C    -2.391654    -0.594801    -0.934895
 P    -1.631017     0.389607     0.418278
 P     1.593477     0.233321    -0.569634
 C     0.548963     2.167046     1.415364
 O     0.928130     2.500596     2.451387
 C     1.028221    -2.498607    -1.194437
 C     0.681391    -0.895997    -2.954960
 C     0.112376    -3.215934    -3.315130
 C     0.199296    -1.903752    -3.784056
 C     0.530891    -3.508835    -2.019902
 H     1.338323    -2.752582    -0.180566
 H     0.471228    -4.532838    -1.642447
 H    -0.280221    -4.005962    -3.959581
 H    -0.125699    -1.661801    -4.798891
 H     0.699833     0.135094    -3.317280
 H     2.682235     1.328853    -2.406447
 H     3.712167     0.037805    -1.757522
 C     3.815803     1.933375    -0.666224
 H     3.083343     2.651057    -0.263642
 H     4.294746     1.461080     0.210684
 C     4.882073     2.700638    -1.450664
 H     4.377612     3.166965    -2.318145
 C     5.464502     3.818014    -0.593197
 H     4.678103     4.500773    -0.235794
 H     6.201338     4.414084    -1.153718
 H     5.975153     3.405771     0.293331
 C     5.982175     1.787588    -1.980322
 H     6.745109     2.360866    -2.529608
 H     5.590452     1.019954    -2.664509
 H     6.490766     1.268018    -1.150221
 H     1.530716    -1.184319     1.347723
 H     2.538286     0.213113     1.613586
 C     3.589616    -1.453756     0.685067
 H     3.518866    -2.010827    -0.264108
 H     4.476414    -0.803589     0.580897
 C     3.838118    -2.456559     1.815590
 H     2.955362    -3.124284     1.856642
 C     5.061553    -3.312203     1.511594
 H     4.962791    -3.827045     0.542960
 H     5.220607    -4.078210     2.286475
 H     5.972104    -2.691510     1.466616
 C     3.961363    -1.777230     3.174745
 H     4.160115    -2.514272     3.968354
 H     3.042797    -1.237022     3.448265
 H     4.793738    -1.053018     3.177366
 C    -0.767330    -0.468537     2.939487
 C    -1.031373    -2.246868     1.340773
 C    -0.127941    -2.722036     3.533787
 C    -0.518941    -3.154353     2.268862
 C    -0.263119    -1.373824     3.868548
 H    -0.831713     0.587324     3.212093
 H     0.038308    -1.021218     4.857857
 H     0.278970    -3.431427     4.258112
 H    -0.424565    -4.208661     1.996110
 H    -1.315927    -2.609337     0.352583
 H    -2.717133     1.664111     2.149773
 H    -3.731925     0.308931     1.630642
 C    -3.881853     2.094577     0.381260
 H    -3.196130     2.873916     0.018207
 H    -4.247203     1.569112    -0.520091
 C    -5.076211     2.760243     1.069752
 H    -4.697032     3.253807     1.984725
 C    -5.667682     3.837813     0.168141
 H    -4.912298     4.589753    -0.107965
 H    -6.503262     4.360743     0.658815
 H    -6.054373     3.396681    -0.765987
 C    -6.143692     1.754016     1.485728
 H    -6.996385     2.255738     1.968920
 H    -5.757980     1.005906     2.194378
 H    -6.531962     1.212668     0.606018
 H    -1.573774    -1.217677    -1.333349
 H    -2.590969     0.138607    -1.731167
 C    -3.623629    -1.430863    -0.614069
 H    -3.533877    -1.876182     0.390949
 H    -4.515593    -0.780585    -0.571663
 C    -3.876297    -2.558389    -1.619071
 H    -2.987061    -3.218215    -1.596508
 C    -5.086365    -3.384791    -1.201772
 H    -4.968630    -3.784982    -0.182476
 H    -5.247827    -4.235505    -1.882006
 H    -6.002831    -2.771293    -1.213994
 C    -4.025311    -2.040058    -3.044901
 H    -4.225450    -2.864764    -3.746562
 H    -3.116431    -1.525520    -3.390791
 H    -4.866211    -1.329430    -3.118159
