  90
scf done:    -3653.584323
 C    -0.757325     0.453657    -3.408019
 H    -1.194606    -0.360692    -3.997151
 H    -1.388943     1.346301    -3.355732
 C     0.650945     0.581865    -3.367916
 H     1.266465    -0.133231    -3.923583
 H     1.112932     1.569824    -3.277099
 H    -0.183795     1.321268    -1.298184
Co    -0.032341    -0.103566    -1.606757
 C    -2.365589     1.331474     0.473783
 C    -3.238178    -1.102452    -0.795240
 C    -1.283065    -1.254596     1.258700
 C     2.325657    -1.017072     0.877343
 C     3.207927     0.802976    -1.128466
 C     1.322469     1.701733     0.839453
 P     1.655314     0.282389    -0.290369
 P    -1.702515    -0.258963    -0.231239
 C     0.056129    -1.802896    -2.038665
 O     0.047812    -2.899878    -2.388619
 H    -1.506939     1.729746     1.047286
 C    -3.575649     1.189316     1.397000
 H    -3.392996     0.451009     2.192084
 H    -4.425760     0.802744     0.809467
 C    -3.956645     2.537258     2.003498
 H    -4.830465     2.418330     2.664770
 H    -3.127467     2.895902     2.640711
 C    -4.243800     3.569488     0.919596
 H    -4.475946     4.548661     1.369502
 H    -5.146182     3.261302     0.361077
 C    -3.072830     3.690862    -0.048386
 H    -2.202528     4.114204     0.484196
 H    -3.315372     4.394743    -0.861183
 C    -2.674087     2.340238    -0.633670
 H    -3.495406     1.948186    -1.261159
 H    -1.797014     2.447202    -1.288939
 C    -3.616393    -0.968766    -2.135667
 C    -4.066646    -1.828133     0.071982
 C    -5.620296    -2.254445    -1.729433
 C    -5.247114    -2.402215    -0.393624
 C    -4.803174    -1.534836    -2.598702
 H    -2.960983    -0.424737    -2.816028
 H    -5.083775    -1.420825    -3.648555
 H    -6.546218    -2.706618    -2.093178
 H    -5.880291    -2.969747     0.292867
 H    -3.784093    -1.951319     1.119664
 C    -1.052309    -2.628884     1.084382
 C    -1.077498    -0.702324     2.527580
 C    -0.421090    -2.858315     3.405693
 C    -0.644240    -1.496838     3.590898
 C    -0.634118    -3.423311     2.146391
 H    -1.205339    -3.083370     0.102233
 H    -0.465762    -4.491149     1.988072
 H    -0.084653    -3.480279     4.238445
 H    -0.485659    -1.043287     4.572631
 H    -1.241624     0.361803     2.697251
 H     1.514061    -1.149736     1.616299
 C     3.614045    -0.617868     1.600190
 H     3.511680     0.360010     2.094400
 H     4.414844    -0.496224     0.851234
 C     4.032786    -1.683918     2.608036
 H     4.960262    -1.375381     3.117632
 H     3.258140    -1.771219     3.392040
 C     4.219590    -3.034910     1.928660
 H     4.486068    -3.807963     2.667888
 H     5.070310    -2.968292     1.226470
 C     2.965692    -3.439839     1.163987
 H     2.146840    -3.621202     1.881796
 H     3.128344    -4.389263     0.628287
 C     2.518212    -2.363365     0.179289
 H     3.276786    -2.256642    -0.616716
 H     1.587563    -2.675945    -0.311415
 C     3.633421     0.047077    -2.228619
 C     4.013248     1.858084    -0.683990
 C     5.633670     1.386896    -2.415246
 C     5.214363     2.151470    -1.328079
 C     4.841469     0.329534    -2.861218
 H     2.999051    -0.762585    -2.594889
 H     5.159391    -0.272527    -3.715866
 H     6.575996     1.617410    -2.918073
 H     5.829122     2.982119    -0.972519
 H     3.704001     2.455269     0.176392
 C     1.064807     2.954562     0.259328
 C     1.202489     1.579031     2.226946
 C     0.558017     3.902365     2.422599
 C     0.813471     2.667716     3.011245
 C     0.696751     4.044546     1.040045
 H     1.142342     3.068898    -0.824820
 H     0.504760     5.009742     0.565320
 H     0.254614     4.753849     3.036220
 H     0.713558     2.543802     4.092507
 H     1.392745     0.622821     2.713771
