 104
scf done:    -3587.042414
 C     0.191833     3.114721    -0.729362
 H    -0.386396     3.566004    -1.543840
 H    -0.071808     3.512996     0.256781
 C     1.522850     2.690355    -0.977671
 H     1.941213     2.811346    -1.983258
 H     2.269556     2.767063    -0.181208
 H     0.555264     1.253652     0.675572
Co     0.292333     1.112116    -0.764968
 C    -1.164839    -0.652661     1.657364
 C    -2.588537     1.805262     0.847156
 C    -2.727024    -0.531963    -0.764286
 C     0.982519    -2.257871    -0.951738
 C     3.132358    -0.658014    -1.716913
 C     2.457015    -0.720369     1.114276
 P     1.683992    -0.567789    -0.560674
 P    -1.503123     0.449392     0.212780
 C    -0.211478     1.028194    -2.437280
 O    -0.592951     1.036574    -3.525073
 C    -1.212590    -2.038093     1.436790
 H    -1.534128    -2.425214     0.469467
 C    -0.706126    -0.184517     2.912165
 C    -0.582422     1.271076     3.261171
 H    -1.562751     1.719035     3.485205
 H    -0.135550     1.843917     2.435002
 H     0.051375     1.400939     4.149332
 C    -0.831574    -2.954053     2.413207
 H    -0.875192    -4.023421     2.194713
 C    -0.332029    -1.123562     3.882106
 H     0.022887    -0.757604     4.849624
 C    -0.388777    -2.494533     3.648913
 H    -0.083514    -3.196468     4.428533
 H    -3.315895     1.401629     1.571418
 H    -1.938981     2.504592     1.388976
 C    -3.286158     2.555673    -0.280653
 H    -2.554369     2.763198    -1.079663
 H    -4.066693     1.922680    -0.735386
 C    -3.912902     3.864265     0.179213
 H    -3.126503     4.508993     0.612054
 H    -4.624437     3.664787     1.001584
 C    -4.624817     4.617853    -0.935376
 H    -3.909358     4.804858    -1.755532
 H    -5.408833     3.970172    -1.366641
 C    -5.238989     5.931779    -0.480631
 H    -5.745099     6.452441    -1.307663
 H    -4.471480     6.613013    -0.079215
 H    -5.983207     5.770748     0.316103
 H    -2.934532     0.085900    -1.654237
 H    -2.189879    -1.409412    -1.153897
 C    -4.018340    -0.953815    -0.079829
 H    -3.789934    -1.460596     0.873080
 H    -4.611960    -0.063579     0.189452
 C    -4.863635    -1.875836    -0.948663
 H    -4.269761    -2.771410    -1.208987
 H    -5.083077    -1.375392    -1.909615
 C    -6.167451    -2.307591    -0.292672
 H    -5.940648    -2.799620     0.669781
 H    -6.757256    -1.409751    -0.035657
 C    -7.001342    -3.236910    -1.159662
 H    -7.936191    -3.531778    -0.659294
 H    -6.448780    -4.159060    -1.402110
 H    -7.271913    -2.757126    -2.114111
 C     0.048456    -2.226510    -1.997826
 H    -0.176397    -1.270581    -2.468891
 C     1.293821    -3.515811    -0.379624
 C     2.331491    -3.752403     0.681191
 H     2.040615    -3.317712     1.648029
 H     3.306400    -3.327197     0.404629
 H     2.473450    -4.831135     0.831843
 C    -0.613613    -3.362233    -2.453852
 H    -1.332186    -3.281621    -3.272790
 C     0.593390    -4.644728    -0.830615
 H     0.820386    -5.610121    -0.369743
 C    -0.357706    -4.584486    -1.843451
 H    -0.877534    -5.490749    -2.163157
 H     3.588187    -1.658801    -1.617812
 H     2.692097    -0.614857    -2.727639
 C     4.184802     0.426876    -1.554596
 H     3.695114     1.412276    -1.535083
 H     4.685918     0.314123    -0.577864
 C     5.236616     0.403094    -2.655108
 H     4.740008     0.528772    -3.634474
 H     5.715228    -0.592979    -2.688916
 C     6.305917     1.474044    -2.490090
 H     5.818593     2.464188    -2.448034
 H     6.799141     1.344168    -1.510225
 C     7.350504     1.462786    -3.594296
 H     8.108063     2.247363    -3.446391
 H     6.889405     1.627873    -4.581421
 H     7.877150     0.495618    -3.636692
 H     1.693922    -1.205036     1.744267
 H     3.316941    -1.401778     1.058085
 C     2.883881     0.579195     1.781648
 H     3.703771     1.054773     1.218534
 H     2.045844     1.292396     1.746018
 C     3.309945     0.368214     3.227376
 H     4.172825    -0.321914     3.269629
 H     2.493191    -0.143052     3.768957
 C     3.659904     1.662540     3.947552
 H     4.476183     2.171471     3.405006
 H     2.795386     2.347841     3.891155
 C     4.057889     1.457945     5.400159
 H     4.302047     2.410233     5.895001
 H     4.940383     0.803343     5.484743
 H     3.244227     0.984322     5.973482
