  60
scf done:    -3259.292660
 C     0.529452    -2.416235     2.187301
 H     0.488000    -3.416784     1.746598
 H     1.514073    -2.148862     2.579772
 C    -0.631385    -1.821245     2.712114
 H    -1.581194    -2.365449     2.696750
 H    -0.549525    -1.101415     3.529092
 H     0.668576     0.005074     1.637967
Co    -0.159987    -0.997831     0.906915
 C     2.514862     0.520380    -0.600920
 O     2.634309    -2.133337    -0.027278
 O     1.301243    -1.273201    -2.015891
 C    -2.863670     0.710903    -0.228758
 O    -1.928241     1.411307     2.106426
 O    -0.623175     2.065435     0.003376
 P    -1.314552     0.755259     0.726469
 P     1.501488    -0.989671    -0.391303
 C    -1.308345    -2.028276     0.073929
 O    -2.106021    -2.692891    -0.414922
 C     2.377734     1.271533    -1.774184
 H     1.716970     0.903368    -2.559403
 C     3.371068     0.973215     0.428007
 C     3.565168     0.221489     1.713572
 H     4.082340    -0.735842     1.552619
 H     2.598084    -0.026750     2.177543
 H     4.154729     0.814896     2.425498
 C     3.072532     2.465521    -1.947384
 H     2.950657     3.038628    -2.869424
 C     4.063417     2.173277     0.228023
 H     4.731132     2.530265     1.016989
 C     3.920560     2.917674    -0.940290
 H     4.473914     3.852174    -1.061318
 C     3.802122    -2.277430    -0.807073
 H     3.562689    -2.392744    -1.876022
 H     4.472274    -1.407670    -0.697328
 H     4.321725    -3.178224    -0.452416
 C     0.573574    -2.400902    -2.446734
 H     0.733696    -3.270990    -1.789089
 H    -0.505352    -2.187109    -2.495990
 H     0.927777    -2.655319    -3.456079
 C    -4.075797     0.649645     0.467011
 H    -4.062733     0.725026     1.555248
 C    -2.849713     0.618308    -1.636341
 C    -1.582165     0.697597    -2.434980
 H    -0.782410     0.085379    -1.995266
 H    -1.198714     1.728472    -2.452846
 H    -1.748308     0.363568    -3.468574
 C    -5.281700     0.502259    -0.212445
 H    -6.220205     0.457613     0.344909
 C    -4.074026     0.469700    -2.296358
 H    -4.075832     0.397504    -3.387488
 C    -5.279030     0.410918    -1.601115
 H    -6.217284     0.290231    -2.148184
 C    -1.227613     1.488316     3.322771
 H    -1.811410     0.991818     4.113358
 H    -0.239577     1.005581     3.258110
 H    -1.091373     2.546794     3.596107
 C     0.382899     2.789799     0.668260
 H    -0.061229     3.537637     1.346857
 H     1.049884     2.129145     1.246599
 H     0.989653     3.304420    -0.088910
