 100
scf done:    -4182.695404
 C     0.535087     2.788604    -1.581830
 H     1.141529     3.543077    -1.070797
 H     0.984972     2.426117    -2.509602
 C    -0.860635     2.797559    -1.415424
 H    -1.326348     3.552833    -0.775666
 H    -1.518370     2.432327    -2.209914
 H    -0.323491     0.520829    -1.600916
Co    -0.039452     1.266209    -0.367033
 C     1.712954    -1.451033    -1.531738
 C     3.291533     0.904132    -1.057613
 C     2.434033    -0.583943     1.125738
 C    -2.057745    -0.396800     1.954810
 C    -3.297731     1.448621     0.121117
 C    -2.516378    -1.167384    -0.718796
 P    -1.884465     0.272233     0.226994
 P     1.765707     0.060144    -0.465211
 C     0.251015     2.154867     1.114318
 O     0.423553     2.784484     2.063080
 C     1.815065    -2.713628    -0.932643
 H     2.004760    -2.780081     0.139096
 C     1.487455    -1.374210    -2.929050
 C     1.340266    -0.081164    -3.675559
 H     2.114296     0.649390    -3.403673
 H     0.373227     0.394786    -3.445300
 H     1.392257    -0.252115    -4.759437
 C     1.676576    -3.888019    -1.667202
 H     1.750472    -4.854833    -1.164072
 C     1.371917    -2.569351    -3.650076
 H     1.207170    -2.509810    -4.729611
 C     1.452408    -3.816438    -3.037230
 H     1.345140    -4.726598    -3.632122
 C     4.221163     0.319871    -1.929751
 H     4.025973    -0.670641    -2.348863
 C     3.587333     2.162944    -0.530241
 H     2.886294     2.631607     0.164010
 C     5.393126     0.979202    -2.273385
 H     6.116223     0.531856    -2.958084
 C     4.764347     2.832666    -0.855911
 H     4.956869     3.812540    -0.418564
 C     5.675965     2.243482    -1.740314
 O     6.835045     2.810823    -2.128380
 C     7.167632     4.075320    -1.628639
 H     7.267466     4.070108    -0.528719
 H     8.135440     4.344219    -2.070675
 H     6.421822     4.838866    -1.912297
 C     1.647226    -0.521779     2.281505
 H     0.640590    -0.107307     2.221190
 C     3.725130    -1.111700     1.237393
 H     4.373013    -1.155061     0.358472
 C     2.116601    -0.987670     3.500418
 H     1.495562    -0.942208     4.396889
 C     4.213427    -1.584331     2.452473
 H     5.225515    -1.987170     2.498537
 C     3.405100    -1.526603     3.596961
 O     3.785817    -1.956779     4.815332
 C     5.068637    -2.493599     4.973568
 H     5.855468    -1.759294     4.725992
 H     5.165070    -2.772764     6.030516
 H     5.217727    -3.394557     4.352278
 C    -2.746631     0.325726     2.938006
 H    -3.259116     1.249406     2.669524
 C    -1.432325    -1.613277     2.317240
 C    -0.703453    -2.478923     1.335068
 H    -0.217744    -1.888102     0.549419
 H    -1.391852    -3.169840     0.822826
 H     0.068546    -3.073345     1.843078
 C    -2.810124    -0.113154     4.257749
 H    -3.354361     0.476838     4.998928
 C    -1.506441    -2.035018     3.650127
 H    -1.010637    -2.969638     3.927047
 C    -2.181437    -1.300180     4.619595
 H    -2.216753    -1.656232     5.652057
 C    -4.431818     1.217196    -0.669401
 H    -4.526012     0.283879    -1.226612
 C    -3.210730     2.678794     0.784120
 H    -2.323191     2.916100     1.375622
 C    -5.444089     2.162218    -0.770806
 H    -6.323438     1.983059    -1.392425
 C    -4.226594     3.628067     0.709708
 H    -4.115824     4.567121     1.252315
 C    -5.358098     3.373288    -0.075266
 O    -6.389418     4.227741    -0.224075
 C    -6.345238     5.459830     0.438228
 H    -5.483921     6.070554     0.114333
 H    -7.271296     5.989501     0.180841
 H    -6.298820     5.336474     1.534874
 C    -1.886645    -1.609495    -1.886482
 H    -1.012139    -1.069757    -2.251356
 C    -3.612945    -1.896282    -0.245680
 H    -4.112966    -1.586564     0.676000
 C    -2.327479    -2.738610    -2.559125
 H    -1.818566    -3.093759    -3.456768
 C    -4.076094    -3.027548    -0.913369
 H    -4.932483    -3.569352    -0.511329
 C    -3.428736    -3.458897    -2.079762
 O    -3.789484    -4.545312    -2.789072
 C    -4.876171    -5.310409    -2.349579
 H    -5.811719    -4.723875    -2.330623
 H    -4.990247    -6.135267    -3.064340
 H    -4.702370    -5.731916    -1.343653
