  74
scf done:    -3392.614683
 C    -0.141084    -3.449980    -1.516744
 H    -0.598766    -4.263765    -0.943447
 H    -0.667982    -3.225850    -2.450130
 C     1.261568    -3.259654    -1.439078
 H     1.854052    -3.926385    -0.802261
 H     1.805246    -2.891776    -2.314969
 H     0.277112    -1.121110    -1.763808
Co     0.289934    -1.804577    -0.451645
 C    -1.572456     0.889755    -1.237552
 C    -3.043268    -1.537028    -1.040909
 C    -2.131169    -0.226442     1.367342
 C     1.342709     0.773238     1.388059
 C     3.473712    -0.893374     0.557432
 C     2.195834     0.841744    -1.372640
 P     1.804507    -0.331454    -0.010753
 P    -1.559302    -0.706020    -0.320807
 C     0.236652    -2.579648     1.115573
 O     0.181801    -3.074258     2.155336
 C    -1.704843     2.138080    -0.619916
 H    -1.853060     2.207963     0.457516
 C    -1.365930     0.859762    -2.625556
 H    -1.225614    -0.100138    -3.128755
 C    -1.623629     3.321963    -1.353440
 H    -1.718532     4.298027    -0.873789
 C    -1.296359     2.028502    -3.374907
 H    -1.133600     2.008601    -4.453994
 C    -1.420339     3.251925    -2.724207
 F    -1.339051     4.376830    -3.431498
 H    -3.883895    -0.823388    -1.068530
 H    -2.783333    -1.768165    -2.086989
 C    -3.423991    -2.815582    -0.306372
 H    -3.736225    -2.572871     0.723677
 H    -2.527058    -3.446978    -0.209542
 C    -4.532557    -3.587481    -1.004314
 H    -5.447752    -2.981220    -1.099717
 H    -4.227376    -3.887480    -2.019525
 H    -4.794295    -4.502481    -0.451508
 H    -1.992958    -1.127961     1.987198
 H    -1.376101     0.483234     1.744810
 C    -3.539325     0.326960     1.551052
 H    -4.276976    -0.466482     1.347457
 H    -3.744441     1.116221     0.809426
 C    -3.752632     0.874805     2.954819
 H    -3.585472     0.095159     3.715010
 H    -3.050126     1.695803     3.173470
 H    -4.774302     1.261090     3.089971
 C     0.934440     2.100062     1.208252
 H     0.977508     2.561901     0.221418
 C     1.254831     0.225913     2.678570
 H     1.542551    -0.812953     2.854812
 C     0.433973     2.854377     2.269293
 H     0.105834     3.886380     2.130383
 C     0.765060     0.966034     3.748930
 H     0.684633     0.538821     4.750020
 C     0.347204     2.273849     3.526625
 F    -0.150818     2.980844     4.539593
 H     4.037536    -0.015740     0.916819
 H     3.299473    -1.537927     1.435088
 C     4.268889    -1.659468    -0.490870
 H     4.423018    -1.024094    -1.379903
 H     3.674920    -2.518596    -0.834849
 C     5.616467    -2.131565     0.032752
 H     6.241305    -1.284102     0.357868
 H     5.493791    -2.801489     0.898827
 H     6.176281    -2.683065    -0.737793
 H     2.377345     0.200301    -2.250767
 H     1.245436     1.353980    -1.601089
 C     3.334535     1.833812    -1.176989
 H     4.291787     1.289473    -1.123464
 H     3.231663     2.347125    -0.206626
 C     3.395648     2.863258    -2.295784
 H     3.523892     2.378921    -3.276940
 H     2.466587     3.454345    -2.343085
 H     4.232388     3.564453    -2.156538
