  94
scf done:    -5023.065276
 C     0.941553    -0.475942    -3.467015
 H     1.653790     0.244226    -3.882536
 H     1.354688    -1.481072    -3.345201
 C    -0.439472    -0.294271    -3.685460
 H    -0.766358     0.553716    -4.298688
 H    -1.114507    -1.152177    -3.713721
 H    -0.097939    -1.275377    -1.532175
Co     0.055668     0.166037    -1.774220
 C     1.340854    -1.508351     0.858077
 C     3.173285    -0.845665    -1.270467
 C     2.439086     1.143772     0.614226
 C    -1.600986     1.447995     0.779148
 C    -3.342989     0.747767    -1.346501
 C    -2.297465    -1.346614     0.251391
 P    -1.762067     0.213082    -0.575510
 P     1.688025    -0.202465    -0.397734
 C     0.247983     1.874497    -2.133161
 O     0.382605     2.973672    -2.446374
 C     1.530103    -1.313635     2.230692
 H     1.973111    -0.384621     2.593213
 C     0.763511    -2.714754     0.437758
 H     0.572413    -2.875955    -0.625719
 C     1.130750    -2.273631     3.158170
 H     1.256554    -2.102196     4.228514
 C     0.389125    -3.696346     1.347139
 H    -0.072509    -4.623963     1.007972
 C     0.558120    -3.460203     2.708901
Cl     0.012470    -4.640991     3.854898
 C     3.629094    -2.157980    -1.183139
 H     3.130259    -2.851850    -0.504027
 C     3.847035     0.048646    -2.127343
 O     3.363419     1.304404    -2.156838
 C     3.916788     2.255306    -3.019464
 H     4.968971     2.473546    -2.765749
 H     3.318389     3.166393    -2.895460
 H     3.860991     1.929876    -4.073284
 C     4.723688    -2.595001    -1.931695
 H     5.062937    -3.629758    -1.848527
 C     4.946534    -0.380433    -2.874504
 H     5.468658     0.311522    -3.536027
 C     5.378588    -1.703434    -2.774288
 H     6.237979    -2.031575    -3.364055
 C     1.822085     2.392383     0.660604
 H     0.880147     2.532250     0.130795
 C     3.660511     0.975742     1.305542
 O     4.213427    -0.248981     1.260118
 C     5.478962    -0.471549     1.809878
 H     6.238204     0.196196     1.367318
 H     5.738840    -1.511115     1.573510
 H     5.481198    -0.340230     2.906518
 C     2.373202     3.459965     1.368080
 H     1.853449     4.419052     1.401760
 C     4.225716     2.044805     2.008649
 H     5.168406     1.917456     2.541428
 C     3.577362     3.279561     2.037789
 H     4.025551     4.104496     2.597301
 C    -2.063858     2.753669     0.570042
 H    -2.647090     2.987119    -0.323972
 C    -0.836570     1.196268     1.924527
 H    -0.406358     0.208831     2.089967
 C    -1.779787     3.772954     1.474017
 H    -2.132215     4.790305     1.295913
 C    -0.565186     2.198633     2.850252
 H     0.043745     1.991917     3.731593
 C    -1.031885     3.488249     2.615018
Cl    -0.639769     4.760831     3.726039
 C    -3.369404     1.053321    -2.704652
 H    -2.432279     0.974676    -3.255540
 C    -4.540647     0.846269    -0.603483
 O    -4.456700     0.578513     0.709833
 C    -5.604635     0.615147     1.507139
 H    -6.045971     1.626494     1.543198
 H    -5.288814     0.327271     2.517751
 H    -6.369286    -0.098906     1.155318
 C    -4.548432     1.440405    -3.342146
 H    -4.544423     1.675818    -4.408252
 C    -5.726999     1.227200    -1.238987
 H    -6.656529     1.304366    -0.674462
 C    -5.723502     1.519361    -2.603381
 H    -6.658158     1.817462    -3.085270
 C    -2.436332    -1.512653     1.628873
 H    -2.277872    -0.659878     2.287201
 C    -2.595914    -2.447505    -0.581129
 O    -2.537228    -2.225186    -1.906821
 C    -2.837726    -3.259304    -2.798787
 H    -2.141568    -4.109473    -2.690563
 H    -2.731757    -2.841214    -3.807646
 H    -3.871818    -3.623188    -2.668545
 C    -2.789707    -2.739404     2.189293
 H    -2.860235    -2.843999     3.273499
 C    -2.952102    -3.681176    -0.025865
 H    -3.171777    -4.532327    -0.670556
 C    -3.035752    -3.825194     1.358167
 H    -3.300853    -4.796237     1.783118
