 100
scf done:    -4182.706940
 C    -0.538213    -0.133825    -3.511966
 H    -1.038387    -1.016051    -3.926837
 H    -1.090545     0.798183    -3.664930
 C     0.870562    -0.120833    -3.418047
 H     1.448827    -0.989372    -3.750037
 H     1.415857     0.822666    -3.521036
 H     0.005909     1.133431    -1.568995
Co     0.037437    -0.345657    -1.591150
 C    -1.447767     1.406160     0.901639
 C    -3.108078     0.822598    -1.352446
 C    -2.517046    -1.198755     0.546755
 C     1.662207    -0.941432     1.288748
 C     3.345699    -0.961090    -1.011933
 C     2.431631     1.527791     0.030575
 P     1.822021    -0.155335    -0.366305
 P    -1.694454     0.136481    -0.409550
 C    -0.143713    -2.087517    -1.598327
 O    -0.310896    -3.225939    -1.631647
 C    -1.929222     1.247098     2.204637
 H    -2.524122     0.368906     2.462006
 C    -0.689842     2.548517     0.612038
 H    -0.306805     2.692840    -0.399054
 C    -1.622114     2.181444     3.193587
 H    -1.993793     2.025276     4.210426
 C    -0.387525     3.477711     1.598835
 H     0.229373     4.344047     1.343484
 C    -0.833704     3.302263     2.915860
 C    -0.465570     4.290476     3.983016
 H    -0.852526     5.294665     3.746860
 H    -0.864550     3.996459     4.963872
 H     0.628848     4.380592     4.074017
 C    -3.731860     2.037691    -1.040608
 H    -3.372192     2.632729    -0.198369
 C    -3.601421     0.084518    -2.432022
 H    -3.126031    -0.863701    -2.693514
 C    -4.808358     2.498846    -1.786701
 H    -5.295915     3.447203    -1.552757
 C    -4.688589     0.527445    -3.180676
 H    -5.044889    -0.080030    -4.012930
 C    -5.297787     1.748325    -2.862861
 O    -6.346005     2.271057    -3.530220
 C    -6.870574     1.567456    -4.620219
 H    -7.256230     0.575766    -4.323695
 H    -7.701868     2.167351    -5.012066
 H    -6.122016     1.430329    -5.420607
 C    -1.717270    -2.154933     1.192134
 H    -0.632491    -2.120838     1.080483
 C    -3.901591    -1.278157     0.712361
 H    -4.549260    -0.547593     0.222242
 C    -2.279703    -3.143093     1.982640
 H    -1.656000    -3.885893     2.483378
 C    -4.483225    -2.274200     1.497955
 H    -5.568518    -2.305832     1.597741
 C    -3.670604    -3.213190     2.143307
 O    -4.131991    -4.208863     2.926299
 C    -5.512948    -4.335185     3.113009
 H    -6.042280    -4.514716     2.160459
 H    -5.664602    -5.200540     3.770790
 H    -5.947104    -3.441058     3.594889
 C     1.979598    -2.293559     1.460505
 H     2.479988    -2.841414     0.658614
 C     1.028274    -0.272085     2.345345
 H     0.763123     0.781323     2.246630
 C     1.652795    -2.957892     2.641392
 H     1.906209    -4.016652     2.746220
 C     0.711233    -0.940184     3.522247
 H     0.205232    -0.391836     4.321934
 C     1.003045    -2.299297     3.690321
 C     0.594291    -3.025379     4.937614
 H     0.794276    -2.425658     5.838378
 H    -0.487787    -3.239658     4.925020
 H     1.121388    -3.984571     5.039810
 C     4.633737    -0.503094    -0.691792
 H     4.755981     0.385276    -0.069014
 C     3.238929    -2.088506    -1.828997
 H     2.252351    -2.462946    -2.104758
 C     5.763339    -1.152747    -1.162871
 H     6.766014    -0.794764    -0.921414
 C     4.365806    -2.761623    -2.300610
 H     4.233196    -3.640508    -2.931778
 C     5.641303    -2.292505    -1.970409
 O     6.791783    -2.859385    -2.381506
 C     6.729849    -3.995572    -3.196975
 H     6.213300    -3.789052    -4.150966
 H     7.766060    -4.286854    -3.410783
 H     6.219962    -4.835887    -2.693377
 C     2.287350     2.538316    -0.932467
 H     1.800880     2.299259    -1.880920
 C     3.054264     1.858160     1.235924
 H     3.202664     1.093007     2.000615
 C     2.718577     3.831498    -0.688600
 H     2.599350     4.620964    -1.433007
 C     3.482521     3.158906     1.503940
 H     3.947942     3.376870     2.465452
 C     3.306162     4.159080     0.542366
 O     3.661721     5.447390     0.710005
 C     4.238011     5.835587     1.925035
 H     5.189872     5.309414     2.116204
 H     4.437268     6.912061     1.849952
 H     3.558061     5.656886     2.777259
