  96
scf done:    -3730.700859
 C     0.638362     2.352915     1.930333
 H     0.923998     1.707923     2.764740
 H     1.407961     3.075476     1.639765
 C    -0.715252     2.625473     1.670813
 H    -1.496479     2.205188     2.309950
 H    -0.996845     3.562468     1.181096
 H    -0.425805     0.254210     1.388760
Co    -0.005659     1.231576     0.368205
 C    -2.824153    -0.733905     0.163218
 O    -3.068497     1.764360    -0.455234
 O    -1.913286     0.371397    -2.115891
 C     2.623150    -0.295552    -1.162355
 O     2.677630     0.100115     1.505387
 O     1.104044    -1.723181     0.538908
 P     1.558884    -0.151205     0.321374
 P    -1.851772     0.660963    -0.482796
 C     0.518667     2.322118    -0.901885
 O     0.873160     3.035932    -1.730428
 C    -2.173363    -1.801363     0.781787
 H    -1.093154    -1.753439     0.937369
 C    -4.205610    -0.812169    -0.055257
 H    -4.716828     0.021866    -0.538956
 C    -2.889486    -2.930735     1.173468
 H    -2.362493    -3.760456     1.653079
 C    -4.912636    -1.940087     0.343120
 H    -5.991598    -1.987818     0.168712
 C    -4.268430    -3.021068     0.962660
 C    -5.046984    -4.226353     1.401019
 H    -5.656099    -3.999537     2.291670
 H    -5.739143    -4.564260     0.614723
 H    -4.383605    -5.064491     1.656773
 C    -2.921106     2.994685    -1.139589
 H    -1.967045     3.471752    -0.850313
 H    -2.883562     2.806063    -2.225536
 C    -4.087537     3.888940    -0.783882
 H    -4.007969     4.810620    -1.386685
 H    -5.020942     3.390800    -1.100169
 C    -4.165928     4.233353     0.696494
 H    -3.240996     4.757611     0.995372
 H    -4.178411     3.294291     1.273110
 C    -5.375858     5.081411     1.050950
 H    -5.372681     6.038085     0.503299
 H    -6.314526     4.562469     0.797439
 H    -5.406500     5.314730     2.126093
 C    -0.850664    -0.232715    -2.824191
 H    -1.038222    -0.006249    -3.886386
 H     0.111127     0.235823    -2.548789
 C    -0.777292    -1.731655    -2.602330
 H     0.040846    -2.125366    -3.230874
 H    -0.473685    -1.921198    -1.557650
 C    -2.071706    -2.472925    -2.900955
 H    -2.329226    -2.343561    -3.967450
 H    -2.888937    -2.002625    -2.332109
 C    -1.995638    -3.950879    -2.556126
 H    -1.194307    -4.458807    -3.118247
 H    -1.790827    -4.089380    -1.482409
 H    -2.940295    -4.469355    -2.780537
 C     3.360436     0.825049    -1.572018
 H     3.341116     1.738989    -0.972233
 C     2.652596    -1.439818    -1.962976
 H     2.069963    -2.316392    -1.675405
 C     4.112702     0.792005    -2.738715
 H     4.680533     1.677681    -3.037196
 C     3.405281    -1.465597    -3.136231
 H     3.412813    -2.371328    -3.749086
 C     4.147237    -0.354322    -3.546013
 C     4.941392    -0.369388    -4.818482
 H     4.992125    -1.377922    -5.251755
 H     4.489714     0.296571    -5.571748
 H     5.970626    -0.015850    -4.652235
 C     4.051592    -0.247592     1.522405
 H     4.192975    -1.040762     2.278556
 H     4.366172    -0.652820     0.546238
 C     4.882954     0.966753     1.879093
 H     5.945589     0.665128     1.876566
 H     4.773331     1.718201     1.077808
 C     4.515388     1.587768     3.219022
 H     4.646311     0.832605     4.014751
 H     3.441540     1.833387     3.207639
 C     5.329622     2.828519     3.545325
 H     6.408488     2.606037     3.584887
 H     5.183851     3.611298     2.783412
 H     5.042562     3.256742     4.517503
 C     1.954545    -2.756500     1.009665
 H     1.593474    -3.684299     0.534363
 H     2.990526    -2.599908     0.664084
 C     1.906256    -2.890440     2.519919
 H     2.601164    -3.700083     2.806751
 H     2.294749    -1.963562     2.973075
 C     0.518444    -3.176313     3.073922
 H     0.112135    -4.083278     2.590563
 H    -0.153401    -2.351616     2.789021
 C     0.503980    -3.344749     4.583976
 H     1.141666    -4.184858     4.903930
 H     0.877014    -2.438101     5.086778
 H    -0.512837    -3.535798     4.958657
