  78
scf done:    -5682.600698
 C    -0.386299    -0.189719    -3.525768
 H    -0.877227    -1.044856    -4.003247
 H    -0.884579     0.767091    -3.707173
 C     1.003905    -0.237965    -3.308921
 H     1.571612    -1.127721    -3.600030
 H     1.598032     0.680657    -3.320820
 H     0.078883     1.015862    -1.529265
Co     0.022853    -0.458984    -1.554549
 C    -1.424068     1.650668     0.546851
 C    -3.256827     0.574926    -1.404983
 C    -2.574933    -0.968083     0.770191
 C     1.891150    -1.539442     1.122016
 C     3.329974    -0.662627    -1.139174
 C     2.136433     1.262493     0.578739
 P     1.750951    -0.330507    -0.255554
 P    -1.736502     0.145492    -0.453055
 C    -0.058412    -2.208579    -1.637162
 O    -0.065618    -3.354972    -1.738230
 C    -0.871883     1.553367     1.829591
 H    -0.714072     0.573805     2.286975
 C    -1.568870     2.921303    -0.024632
 H    -1.962977     3.021063    -1.038747
 C    -0.503667     2.691110     2.541305
 H    -0.063329     2.624515     3.537113
 C    -1.209307     4.067952     0.676003
 H    -1.319648     5.062812     0.240844
 C    -0.678861     3.936632     1.953974
 F    -0.312574     5.026759     2.620633
 C    -3.501995    -0.112355    -2.596725
 H    -2.750860    -0.809960    -2.968823
 C    -4.234910     1.454559    -0.923035
 H    -4.080781     1.989065     0.016856
 C    -4.684968     0.077367    -3.305940
 H    -4.873093    -0.461002    -4.236133
 C    -5.416371     1.663307    -1.625989
 H    -6.174995     2.353698    -1.253800
 C    -5.634337     0.972608    -2.818665
Cl    -7.102623     1.229209    -3.697133
 C    -3.283039    -0.481323     1.876976
 H    -3.319997     0.591346     2.076845
 C    -2.574785    -2.348033     0.538772
 H    -2.042853    -2.759372    -0.319686
 C    -3.943651    -1.344771     2.744908
 H    -4.485575    -0.960498     3.610576
 C    -3.236077    -3.225291     1.393767
 H    -3.225120    -4.300332     1.207764
 C    -3.912003    -2.717588     2.501450
Cl    -4.718585    -3.798333     3.584356
 C     3.121394    -2.007658     1.605278
 H     4.052965    -1.673537     1.142470
 C     0.715741    -2.002256     1.721613
 H    -0.248435    -1.673214     1.333951
 C     3.173827    -2.904127     2.668484
 H     4.123334    -3.281534     3.052509
 C     0.749609    -2.895191     2.788370
 H    -0.167220    -3.262985     3.252968
 C     1.984667    -3.333989     3.249189
 F     2.033957    -4.192280     4.262695
 C     3.498334    -1.925174    -1.726998
 H     2.716992    -2.683213    -1.626216
 C     4.344219     0.286101    -1.286784
 H     4.240764     1.274492    -0.834711
 C     4.652121    -2.238174    -2.433411
 H     4.783376    -3.223306    -2.883784
 C     5.502865    -0.011008    -2.004396
 H     6.293147     0.732475    -2.119825
 C     5.651782    -1.272667    -2.572118
Cl     7.088638    -1.652412    -3.458889
 C     2.699812     1.328728     1.858204
 H     2.884643     0.413791     2.423836
 C     1.901261     2.457425    -0.111493
 H     1.437258     2.421566    -1.100331
 C     3.021756     2.553363     2.436574
 H     3.452176     2.602404     3.438127
 C     2.230432     3.686708     0.448643
 H     2.040902     4.615837    -0.090775
 C     2.786975     3.729065     1.726221
Cl     3.171948     5.254968     2.441363
