  88
scf done:    -4422.466562
 C    -1.272235     0.394669     3.039569
 H    -1.961587     1.226343     3.215907
 H    -1.744376    -0.590877     3.037149
 C     0.088755     0.529957     3.350895
 H     0.464614     1.465151     3.778275
 H     0.679099    -0.353481     3.605356
 H     0.022388    -0.819394     1.312090
Co    -0.192658     0.646877     1.332464
 C    -1.239373    -1.119199    -1.442151
 O    -2.901697    -0.771920     0.681903
 O    -2.419181     1.149602    -0.978362
 C     2.711713     1.969826     0.152054
 O     2.896623    -0.188926     1.602804
 O     1.873452    -0.472207    -0.742198
 P     1.746414     0.492533     0.601463
 P    -1.622296     0.002245    -0.048099
 C    -0.284058     2.412216     1.327935
 O    -0.258805     3.554713     1.386965
 C    -1.161038    -0.580054    -2.733372
 H    -1.376355     0.478326    -2.880121
 C    -0.965812    -2.488887    -1.236616
 C    -1.077065    -3.165252     0.098474
 H    -2.127077    -3.422894     0.310446
 H    -0.723345    -2.534076     0.924893
 H    -0.499981    -4.100273     0.105818
 C    -0.839991    -1.376207    -3.827797
 H    -0.798610    -0.937626    -4.827392
 C    -0.628207    -3.265201    -2.352621
 H    -0.415083    -4.327030    -2.203506
 C    -0.571912    -2.729140    -3.634731
 H    -0.314044    -3.369165    -4.481836
 C    -3.945592    -1.442529     0.106641
 C    -4.425474    -1.181511    -1.178925
 H    -3.968168    -0.401964    -1.786080
 C    -4.555770    -2.421334     0.896066
 H    -4.170478    -2.596790     1.902225
 C    -5.501096    -1.915703    -1.674684
 H    -5.891677    -1.731517    -2.677000
 C    -5.633495    -3.149574     0.403924
 H    -6.123580    -3.917411     1.005061
 C    -6.091155    -2.891352    -0.883086
 F    -7.120283    -3.590470    -1.362600
 C    -2.773529     2.365977    -0.466502
 C    -3.482657     2.473810     0.731867
 H    -3.764785     1.570228     1.274536
 C    -2.415615     3.509300    -1.180083
 H    -1.858956     3.400028    -2.112154
 C    -3.812110     3.732157     1.227266
 H    -4.357191     3.847251     2.165682
 C    -2.753096     4.767320    -0.692611
 H    -2.478225     5.678498    -1.226399
 C    -3.440628     4.863507     0.511606
 F    -3.754058     6.067505     0.987155
 C     3.728227     2.425571     1.000521
 H     3.995825     1.830998     1.874997
 C     2.337114     2.728053    -0.978115
 C     1.256897     2.287813    -1.922636
 H     0.389299     1.876841    -1.386468
 H     1.619617     1.496139    -2.597375
 H     0.916249     3.129661    -2.540827
 C     4.396593     3.615760     0.733423
 H     5.190143     3.957828     1.401493
 C     3.025580     3.920362    -1.224886
 H     2.747709     4.514942    -2.099228
 C     4.043749     4.364228    -0.386486
 H     4.558818     5.302253    -0.606797
 C     2.737375    -1.376836     2.257129
 C     3.161673    -1.444757     3.585457
 H     3.566768    -0.547145     4.055752
 C     2.212921    -2.509131     1.629188
 H     1.900772    -2.456646     0.586007
 C     3.056601    -2.637492     4.293137
 H     3.380276    -2.712864     5.332643
 C     2.097571    -3.701691     2.339965
 H     1.687891    -4.599194     1.873189
 C     2.518355    -3.753564     3.661995
 F     2.409065    -4.896568     4.338967
 C     2.961808    -0.669465    -1.549700
 C     2.685005    -1.080487    -2.855268
 H     1.643183    -1.213988    -3.148790
 C     4.283659    -0.510809    -1.127656
 H     4.502548    -0.212936    -0.103582
 C     3.723797    -1.322071    -3.747451
 H     3.528901    -1.645614    -4.771450
 C     5.324052    -0.747067    -2.024411
 H     6.365230    -0.627503    -1.719940
 C     5.035541    -1.146227    -3.322107
 F     6.035119    -1.371964    -4.175716
