  80
scf done:    -3272.800974
 C    -0.448466    -3.427492    -1.557841
 H    -0.995173    -4.197224    -1.001479
 H    -0.929160    -3.150949    -2.502172
 C     0.964501    -3.372111    -1.447461
 H     1.477731    -4.094475    -0.802354
 H     1.558652    -3.054647    -2.310103
 H     0.201755    -1.150607    -1.781996
Co     0.113135    -1.836028    -0.473982
 C    -1.435705     1.035518    -1.281450
 C    -3.157715    -1.231114    -1.153709
 C    -2.187231    -0.036854     1.293156
 C     1.376495     0.564881     1.471442
 C     3.370477    -1.216089     0.541437
 C     2.210286     0.695025    -1.294041
 P     1.743175    -0.504920     0.020330
 P    -1.619384    -0.557904    -0.383678
 C    -0.073456    -2.620347     1.078754
 O    -0.228075    -3.131115     2.100568
 C    -1.396902     2.280287    -0.648564
 H    -1.550105     2.356989     0.427983
 C    -1.220342     1.001031    -2.668126
 H    -1.215959     0.040263    -3.189342
 C    -1.127516     3.444726    -1.369998
 H    -1.090397     4.402713    -0.843206
 C    -0.967042     2.162563    -3.385291
 H    -0.798079     2.100976    -4.464218
 C    -0.901200     3.410106    -2.747271
 C    -0.578614     4.653370    -3.522676
 H     0.467112     4.640196    -3.871776
 H    -1.214951     4.745582    -4.416333
 H    -0.715241     5.557103    -2.912431
 H    -3.919034    -0.434543    -1.205812
 H    -2.889166    -1.487832    -2.191558
 C    -3.692202    -2.464160    -0.437737
 H    -4.009284    -2.192320     0.583541
 H    -2.869510    -3.186150    -0.316898
 C    -4.853081    -3.114805    -1.173248
 H    -5.696488    -2.415835    -1.293654
 H    -4.549461    -3.442707    -2.180298
 H    -5.226227    -3.998742    -0.633869
 H    -2.180791    -0.955865     1.902598
 H    -1.365860     0.572466     1.706928
 C    -3.524913     0.680030     1.430605
 H    -4.344582    -0.020445     1.200452
 H    -3.607050     1.486601     0.683766
 C    -3.720803     1.254466     2.826161
 H    -3.660220     0.465779     3.593160
 H    -2.939818     1.996636     3.059910
 H    -4.698403     1.749630     2.929899
 C     1.227246    -0.035626     2.732183
 H     1.415796    -1.104680     2.855446
 C     1.099878     1.931248     1.367063
 H     1.195401     2.441507     0.408204
 C     0.802630     0.698133     3.832275
 H     0.688104     0.196908     4.797630
 C     0.665914     2.663317     2.473096
 H     0.448312     3.729047     2.355739
 C     0.499097     2.062841     3.722922
 C    -0.006102     2.835430     4.905610
 H    -0.030084     3.915305     4.702553
 H    -1.029250     2.522681     5.172351
 H     0.623055     2.668739     5.793416
 H     4.003881    -0.397347     0.923495
 H     3.157598    -1.876461     1.398493
 C     4.091639    -2.000194    -0.546083
 H     4.278846    -1.346263    -1.415178
 H     3.431024    -2.800660    -0.909448
 C     5.408533    -2.588287    -0.063249
 H     6.099345    -1.801067     0.279567
 H     5.249756    -3.277380     0.781723
 H     5.914380    -3.152145    -0.861820
 H     2.328031     0.084594    -2.204295
 H     1.300998     1.290976    -1.480732
 C     3.424777     1.587422    -1.074892
 H     4.341613     0.975123    -1.091239
 H     3.389723     2.041851    -0.071080
 C     3.522775     2.682420    -2.127212
 H     3.579742     2.256289    -3.141675
 H     2.636243     3.337150    -2.098256
 H     4.412556     3.312866    -1.977548
