  80
scf done:    -3272.763720
 C    -0.850889    -0.498664    -3.300245
 H    -0.857695    -1.526761    -3.679659
 H    -1.825676    -0.007661    -3.393447
 C     0.325936     0.283390    -3.413621
 H     1.223310    -0.142437    -3.878298
 H     0.218508     1.359310    -3.580139
 H    -0.631347     1.032569    -1.406108
Co     0.029745    -0.271356    -1.501563
 C    -2.355073     0.694244     0.749618
 C    -3.042336    -1.568461    -0.975230
 C    -1.159942    -1.885100     1.349427
 C     2.344321    -0.333641     0.908954
 C     3.111163     1.180209    -1.437786
 C     1.118839     2.367532     0.472870
 P     1.592037     0.775739    -0.387710
 P    -1.582383    -0.769515    -0.103210
 C     0.836664    -1.812310    -1.715998
 O     1.355658    -2.803474    -1.988469
 C    -2.220779     0.856121     2.137444
 H    -1.753516     0.075495     2.734039
 C    -3.015084     1.722234     0.028679
 C    -3.281742     1.659401    -1.445797
 H    -4.163652     1.035549    -1.663771
 H    -2.423140     1.231141    -1.980362
 H    -3.481660     2.661923    -1.848130
 C    -2.671205     1.990746     2.807467
 H    -2.534839     2.070398     3.888562
 C    -3.461442     2.855559     0.720048
 H    -3.957040     3.645926     0.149605
 C    -3.291773     3.007171     2.091824
 H    -3.648542     3.908931     2.594893
 H    -3.099388    -0.945451    -1.879641
 C    -2.698582    -2.978224    -1.443853
 H    -3.454588    -3.326645    -2.165562
 H    -1.719260    -3.013504    -1.941737
 H    -2.688467    -3.697047    -0.611032
 C    -4.399232    -1.511576    -0.282584
 H    -4.617561    -0.517306     0.133391
 H    -5.192768    -1.753351    -1.008973
 H    -4.479091    -2.238278     0.536474
 H    -0.586203    -1.204379     1.998352
 C    -2.343576    -2.432476     2.142561
 H    -1.989638    -2.850475     3.099260
 H    -3.104259    -1.672642     2.368101
 H    -2.837554    -3.251113     1.599149
 C    -0.185187    -3.000821     0.987251
 H     0.775844    -2.601507     0.644813
 H     0.017059    -3.606751     1.884853
 H    -0.573782    -3.674798     0.211630
 C     3.156440    -1.338079     0.346760
 H     3.337734    -1.338557    -0.729078
 C     2.093745    -0.395923     2.300555
 C     1.234366     0.562350     3.078182
 H     0.257247     0.729709     2.611054
 H     1.707321     1.547891     3.194471
 H     1.052191     0.168217     4.087419
 C     3.725448    -2.357980     1.096282
 H     4.342624    -3.113072     0.604656
 C     2.676992    -1.439062     3.040205
 H     2.475029    -1.481047     4.114066
 C     3.484945    -2.410334     2.465852
 H     3.913352    -3.204885     3.080933
 H     3.179758     0.273420    -2.062412
 C     2.841593     2.344320    -2.386956
 H     3.600418     2.353860    -3.185512
 H     1.855076     2.276825    -2.859994
 H     2.911153     3.309740    -1.864409
 C     4.447435     1.379555    -0.728350
 H     4.685629     0.574017    -0.021752
 H     5.253721     1.413546    -1.479662
 H     4.479083     2.329245    -0.177962
 H     0.402884     2.005216     1.223750
 C     2.267594     3.083222     1.176823
 H     1.871756     3.810540     1.904464
 H     2.941140     2.397742     1.710369
 H     2.876484     3.649546     0.456649
 C     0.327766     3.339746    -0.398967
 H    -0.490401     2.829853    -0.924556
 H    -0.115798     4.117528     0.242660
 H     0.956926     3.841680    -1.146160
