  82
scf done:    -6703.944494
 C     1.885958     2.560737    -2.533454
 H     1.292496     2.832672    -3.412147
 H     1.964013     3.350458    -1.779394
 C     2.901404     1.592999    -2.637517
 H     3.106106     1.117389    -3.601557
 H     3.760828     1.628573    -1.963995
 H     1.926849     1.279183    -0.472743
Co     1.271490     0.804122    -1.704649
 C    -0.101781     3.024536     0.362976
 O    -1.657719     2.311815    -1.624756
 O    -1.208502     0.533994     0.211297
 C     0.868435    -2.472626    -0.874668
 O     3.290038    -1.540509    -0.665760
 O     1.545427    -0.656542     1.006655
 P     1.750898    -0.905103    -0.639825
 P    -0.398024     1.626034    -0.762865
 C     0.655532     0.047913    -3.168837
 O     0.281269    -0.464885    -4.123836
 C     0.700087     2.787774     1.487438
 H     1.104329     1.786557     1.665289
 C    -0.613892     4.303562     0.134719
 H    -1.238947     4.485171    -0.741225
 C     0.965693     3.811493     2.388505
 H     1.574540     3.634314     3.276423
 C    -0.338357     5.339854     1.024043
 H    -0.729723     6.344018     0.853378
 C     0.444999     5.085490     2.148643
Cl     0.780953     6.364557     3.262042
 C    -2.823809     1.667207    -1.936049
 C    -4.016849     2.214789    -1.461586
 H    -3.980809     3.135995    -0.878482
 C    -2.842512     0.491208    -2.685183
 H    -1.918537     0.085311    -3.094951
 C    -5.222270     1.561335    -1.682894
 H    -6.154874     1.964257    -1.285432
 C    -4.048926    -0.170119    -2.904979
 H    -4.073632    -1.098666    -3.477749
 C    -5.229813     0.356850    -2.386994
Cl    -6.720822    -0.496785    -2.606784
 C    -2.425790     0.655030     0.830184
 C    -3.341066    -0.378274     0.617548
 H    -3.055513    -1.213833    -0.022305
 C    -2.762415     1.728573     1.655311
 H    -2.041664     2.520553     1.852125
 C    -4.611709    -0.315508     1.173686
 H    -5.342664    -1.102016     0.980676
 C    -4.036799     1.793414     2.214042
 H    -4.316856     2.634879     2.849754
 C    -4.961385     0.783241     1.958643
Cl    -6.559385     0.892699     2.617454
 C     1.457637    -3.725646    -0.672231
 H     2.517960    -3.790131    -0.424356
 C    -0.489849    -2.397516    -1.200880
 H    -0.955003    -1.420744    -1.345977
 C     0.698168    -4.885198    -0.781360
 H     1.147774    -5.866146    -0.620500
 C    -1.259013    -3.550076    -1.311741
 H    -2.319319    -3.496705    -1.564820
 C    -0.658022    -4.790031    -1.096072
Cl    -1.606302    -6.228853    -1.223880
 C     4.406453    -0.751999    -0.642157
 C     5.370944    -0.955874    -1.627851
 H     5.194639    -1.718577    -2.388108
 C     4.598254     0.220902     0.341097
 H     3.838535     0.372930     1.108791
 C     6.527241    -0.183646    -1.640720
 H     7.287028    -0.331032    -2.409711
 C     5.750650     1.001758     0.324064
 H     5.909236     1.771662     1.080683
 C     6.709900     0.798332    -0.666668
Cl     8.143017     1.770251    -0.686513
 C     1.371268    -1.689108     1.891790
 C     2.468692    -2.392841     2.386020
 H     3.474603    -2.124286     2.059072
 C     0.077591    -2.017511     2.295832
 H    -0.761455    -1.449443     1.892100
 C     2.270356    -3.439278     3.282995
 H     3.117560    -4.001781     3.678324
 C    -0.123398    -3.062619     3.190483
 H    -1.130119    -3.334480     3.511211
 C     0.975046    -3.772460     3.676372
Cl     0.726966    -5.081415     4.783410
