  96
scf done:    -3882.038225
 C    -0.461412     2.981461    -1.654369
 H    -1.165495     3.014189    -2.493379
 H    -0.748142     3.633090    -0.821608
 C     0.911456     2.746187    -1.901315
 H     1.252571     2.576351    -2.928947
 H     1.660279     3.209831    -1.254864
 H     0.315773     1.793289     0.228751
Co     0.049135     1.128090    -1.058975
 C    -0.980815     0.160181     1.916425
 C    -3.078535     1.518049     0.336384
 C    -2.347212    -1.188729    -0.278535
 C     1.645817    -1.780756    -0.120167
 C     3.116126    -0.071355    -1.851801
 C     2.806147     0.756616     0.926729
 P     1.834367     0.038382    -0.488124
 P    -1.566792     0.430488     0.183614
 C    -0.363221     0.344947    -2.566835
 O    -0.655973    -0.152588    -3.565021
 C    -0.517223    -1.119217     2.257338
 H    -0.627343    -1.946619     1.556423
 C    -0.812833     1.212562     2.846861
 C    -1.244157     2.626332     2.576947
 H    -2.334654     2.744267     2.657726
 H    -0.944940     2.946465     1.567426
 H    -0.787334     3.313723     3.302470
 C     0.099598    -1.375990     3.478361
 H     0.451890    -2.385698     3.700997
 C    -0.195224     0.930793     4.072326
 H    -0.064644     1.746649     4.788785
 C     0.263041    -0.343161     4.395685
 H     0.745412    -0.524019     5.359052
 H    -2.711787     2.553150     0.301597
 H    -3.539229     1.350770     1.320090
 C    -4.103582     1.300745    -0.741369
 C    -5.430640     1.016954    -0.401256
 H    -5.706408     0.928597     0.652904
 C    -3.764620     1.377688    -2.098146
 H    -2.733778     1.604816    -2.373223
 C    -6.393901     0.814031    -1.386125
 H    -7.422608     0.587221    -1.096148
 C    -4.723116     1.161534    -3.085266
 H    -4.434188     1.217379    -4.137645
 C    -6.042795     0.879356    -2.733212
 H    -6.795357     0.711975    -3.507592
 H    -1.568585    -1.954578    -0.141410
 H    -2.480861    -1.114865    -1.368343
 C    -3.645326    -1.617713     0.347347
 C    -3.906969    -1.512315     1.719370
 H    -3.148040    -1.102210     2.387618
 C    -4.644820    -2.151799    -0.476021
 H    -4.467225    -2.217877    -1.552804
 C    -5.133394    -1.916924     2.244841
 H    -5.317066    -1.819670     3.317842
 C    -5.866898    -2.563383     0.046577
 H    -6.632416    -2.966835    -0.620664
 C    -6.119354    -2.443271     1.412332
 H    -7.080402    -2.758081     1.826061
 C     0.741717    -2.391399    -1.003645
 H     0.253385    -1.779094    -1.761790
 C     2.294527    -2.595421     0.838471
 C     3.358017    -2.133494     1.792306
 H     2.986131    -1.383909     2.503929
 H     4.215398    -1.704092     1.254153
 H     3.732078    -2.985637     2.375163
 C     0.441577    -3.748664    -0.956000
 H    -0.266128    -4.176211    -1.669821
 C     1.949831    -3.954540     0.894587
 H     2.439128    -4.578044     1.647666
 C     1.037537    -4.537073     0.022162
 H     0.805388    -5.601694     0.101065
 H     3.422036     0.965959    -2.055249
 H     2.551026    -0.411433    -2.732940
 C     4.280204    -0.971200    -1.574631
 C     4.184721    -2.349314    -1.819867
 H     3.271590    -2.751983    -2.263776
 C     5.472307    -0.486501    -1.018479
 H     5.591640     0.584677    -0.844369
 C     5.227291    -3.211465    -1.492916
 H     5.122491    -4.281362    -1.688136
 C     6.519527    -1.346375    -0.691239
 H     7.437544    -0.940472    -0.259448
 C     6.397286    -2.715714    -0.918297
 H     7.214886    -3.392595    -0.659634
 H     3.790902     0.275104     0.965582
 H     2.245658     0.470890     1.829007
 C     2.954125     2.248131     0.881102
 C     2.094316     3.059207     1.629955
 H     1.350927     2.581123     2.267951
 C     3.934991     2.873645     0.102261
 H     4.633816     2.270033    -0.478511
 C     2.181265     4.447384     1.573050
 H     1.490460     5.057624     2.160252
 C     4.031819     4.262683     0.046333
 H     4.801990     4.726473    -0.574477
 C     3.147141     5.056742     0.773251
 H     3.215732     6.145819     0.723322
