 102
scf done:    -4879.551546
 C     0.252101     0.127926    -3.240723
 H    -0.663201     0.473518    -3.732828
 H     1.161588     0.429318    -3.770966
 C     0.234009    -1.070537    -2.488928
 H    -0.687940    -1.657316    -2.436544
 H     1.125365    -1.708636    -2.453615
 H     0.315680     0.478937     0.232011
Co     0.293897     0.547068    -1.261631
 C     2.461081    -1.555928     0.126861
 C     3.547812     0.147805    -2.012424
 C     3.048577     1.276159     0.599974
 C    -2.325527     1.987052     0.105152
 C    -3.005378     0.041527    -1.930493
 C    -2.228089    -0.752907     0.783005
 P    -1.750139     0.386487    -0.600226
 P     2.278617     0.106342    -0.633833
 C     0.494275     2.229640    -1.663639
 O     0.684739     3.311277    -2.020350
 C     1.712821    -1.833925     1.281870
 H     1.092385    -1.053437     1.723869
 C     3.178575    -2.608946    -0.453210
 H     3.754009    -2.457083    -1.366996
 C     1.710374    -3.096119     1.860789
 H     1.118450    -3.296136     2.754736
 C     3.168134    -3.887741     0.101144
 H     3.721740    -4.702726    -0.367714
 C     2.436821    -4.123654     1.261891
Cl     2.399137    -5.713170     1.944777
 H     3.540768    -0.845752    -2.483840
 H     3.099513     0.825516    -2.749122
 C     4.936999     0.587515    -1.658751
 C     5.838010    -0.303672    -1.062181
 H     5.530549    -1.335599    -0.882143
 C     5.337759     1.923984    -1.876073
 C     4.423752     2.927491    -2.520702
 H     3.478585     3.058534    -1.971124
 H     4.149516     2.628283    -3.545519
 H     4.907389     3.911568    -2.583408
 C     7.113142     0.099886    -0.676634
 H     7.794379    -0.616752    -0.212133
 C     6.623606     2.311528    -1.483448
 H     6.934505     3.346174    -1.652068
 C     7.508706     1.417935    -0.886446
 H     8.505046     1.751895    -0.587796
 H     4.120463     1.035630     0.631584
 H     2.949612     2.267208     0.132269
 C     2.485772     1.263426     1.990103
 C     3.032050     0.362523     2.914458
 H     3.862132    -0.274302     2.598221
 C     1.444764     2.123437     2.403550
 C     0.877086     3.184793     1.509988
 H     0.243698     2.742688     0.729550
 H     1.665398     3.757841     0.998332
 H     0.260923     3.891633     2.081594
 C     2.532504     0.247549     4.207408
 H     2.973596    -0.470569     4.902439
 C     0.949426     1.988452     3.707198
 H     0.141328     2.652038     4.027835
 C     1.468929     1.055703     4.601086
 H     1.058900     0.978813     5.611040
 C    -2.438190     3.093063    -0.749442
 H    -2.234972     2.982813    -1.817545
 C    -2.557268     2.184601     1.470864
 H    -2.464919     1.359704     2.177460
 C    -2.783743     4.349337    -0.267998
 H    -2.867728     5.202952    -0.942166
 C    -2.893780     3.440779     1.971745
 H    -3.066319     3.586702     3.039358
 C    -3.007230     4.518696     1.099093
Cl    -3.416937     6.083577     1.714123
 H    -3.045864     0.974989    -2.514649
 H    -2.527802    -0.698611    -2.584808
 C    -4.381909    -0.398443    -1.528698
 C    -5.230849     0.493117    -0.858588
 H    -4.868735     1.497715    -0.627097
 C    -4.849176    -1.693961    -1.839483
 C    -3.994543    -2.692310    -2.565961
 H    -3.067153    -2.913102    -2.015022
 H    -3.707762    -2.330777    -3.566857
 H    -4.532084    -3.640820    -2.696949
 C    -6.523362     0.127787    -0.492094
 H    -7.165424     0.842622     0.027740
 C    -6.153634    -2.040350    -1.467583
 H    -6.518260    -3.042229    -1.709872
 C    -6.989038    -1.148077    -0.801049
 H    -8.001811    -1.450074    -0.523998
 H    -1.520835    -0.512638     1.595498
 H    -3.226024    -0.438105     1.113506
 C    -2.214360    -2.232655     0.515642
 C    -1.094181    -2.827072    -0.071715
 H    -0.257178    -2.184842    -0.343833
 C    -3.302486    -3.041861     0.906666
 C    -4.497290    -2.474255     1.616615
 H    -4.975028    -1.665648     1.044017
 H    -4.219156    -2.061884     2.600643
 H    -5.255894    -3.250577     1.784727
 C    -1.040242    -4.197217    -0.313080
 H    -0.147980    -4.633738    -0.767744
 C    -3.237090    -4.415102     0.645062
 H    -4.082014    -5.045004     0.936793
 C    -2.125418    -4.995231     0.037329
 H    -2.104948    -6.071631    -0.149367
