  96
scf done:    -3730.700137
 C    -0.470188     2.325247    -2.376868
 H    -0.969707     2.190834    -3.342039
 H    -0.993571     2.995347    -1.688206
 C     0.928454     2.199196    -2.301105
 H     1.498257     1.979726    -3.208461
 H     1.482284     2.773175    -1.552502
 H     0.107978     1.322273    -0.194308
Co     0.027439     0.571247    -1.469103
 C    -2.491308     1.947869     0.231180
 O    -3.099619    -0.412794    -0.843664
 O    -1.471482    -0.375976     1.086509
 C     1.521328    -2.016113     0.266448
 O     2.982246    -0.837543    -1.516126
 O     2.519603     0.495166     0.533796
 P     1.705065    -0.405055    -0.588643
 P    -1.732917     0.379923    -0.351316
 C    -0.098752    -0.448277    -2.886456
 O    -0.155413    -1.109621    -3.825342
 C    -1.961745     2.489911     1.409070
 H    -1.193669     1.930079     1.946792
 C    -3.456368     2.674700    -0.493836
 C    -4.040657     2.185420    -1.786843
 H    -4.745739     1.359528    -1.613384
 H    -3.260887     1.808506    -2.464620
 H    -4.576252     2.995483    -2.300611
 C    -2.389339     3.718233     1.901713
 H    -1.964557     4.115192     2.826598
 C    -3.873299     3.911252     0.016397
 H    -4.620399     4.482055    -0.541990
 C    -3.357280     4.431885     1.199317
 H    -3.705206     5.400555     1.566001
 C    -3.250517    -1.037628    -2.103440
 H    -4.315394    -0.922482    -2.366190
 H    -2.667287    -0.499849    -2.869635
 C    -2.878838    -2.506202    -2.099907
 H    -3.137644    -2.908144    -3.095382
 H    -1.785011    -2.615059    -2.015281
 C    -3.563671    -3.321674    -1.013217
 H    -4.649937    -3.123158    -1.034206
 H    -3.215882    -2.964289    -0.029504
 C    -3.312878    -4.815019    -1.147304
 H    -3.733347    -5.208127    -2.086735
 H    -2.234671    -5.041274    -1.158555
 H    -3.765367    -5.380174    -0.318292
 C    -2.502985    -0.664895     2.022383
 H    -2.691581     0.232437     2.638290
 H    -3.435401    -0.904088     1.487266
 C    -2.068026    -1.823025     2.893414
 H    -2.860498    -1.989663     3.644516
 H    -2.019394    -2.739527     2.281706
 C    -0.727347    -1.610873     3.582374
 H    -0.746862    -0.651614     4.131685
 H     0.050255    -1.507611     2.809220
 C    -0.359233    -2.741918     4.527621
 H    -1.097134    -2.849301     5.339483
 H    -0.312144    -3.701687     3.989677
 H     0.625871    -2.577097     4.989837
 C     0.293247    -2.660567     0.110858
 H    -0.479861    -2.158682    -0.470231
 C     2.547649    -2.635464     1.020186
 C     3.921590    -2.054613     1.187584
 H     3.897594    -1.087050     1.706977
 H     4.378437    -1.866441     0.206433
 H     4.563499    -2.742617     1.754193
 C     0.040364    -3.900767     0.690473
 H    -0.927812    -4.385409     0.551189
 C     2.265150    -3.871980     1.611263
 H     3.046285    -4.358688     2.201587
 C     1.032885    -4.503750     1.454115
 H     0.854996    -5.472711     1.927320
 C     3.483707    -0.062709    -2.592998
 H     4.146567    -0.744386    -3.149043
 H     2.656062     0.217998    -3.264095
 C     4.244585     1.165880    -2.136640
 H     4.587040     1.702983    -3.039409
 H     3.548244     1.844316    -1.618560
 C     5.423142     0.866610    -1.222902
 H     6.137410     0.205825    -1.746121
 H     5.052332     0.300455    -0.354951
 C     6.130637     2.123151    -0.743842
 H     6.519696     2.717045    -1.587039
 H     5.440660     2.769581    -0.177314
 H     6.979538     1.885675    -0.084691
 C     1.864110     0.903421     1.721481
 H     0.828539     0.519874     1.748986
 H     2.396330     0.443870     2.574429
 C     1.873542     2.412026     1.839509
 H     2.903446     2.769021     1.666727
 H     1.257664     2.831243     1.024797
 C     1.367522     2.905771     3.186673
 H     2.028054     2.527196     3.986614
 H     0.375956     2.464285     3.392624
 C     1.274654     4.420691     3.267972
 H     2.257403     4.889240     3.099547
 H     0.587354     4.815615     2.502905
 H     0.910934     4.754429     4.251717
