  96
scf done:    -3882.042141
 C    -0.833224    -1.050968    -2.843463
 H    -1.280127    -1.999727    -2.528693
 H    -1.505951    -0.421988    -3.434142
 C     0.557832    -0.939902    -3.005542
 H     1.212148    -1.797606    -2.827960
 H     0.959481    -0.232896    -3.738015
 H     0.037907    -1.363413    -0.656420
Co    -0.018743    -0.038665    -1.277249
 C     2.211983    -1.198986     1.093147
 C     3.388703    -0.117896    -1.295080
 C     2.296499     1.641121     0.579975
 C    -2.267930     1.458100     1.023612
 C    -3.293747     0.204600    -1.356941
 C    -2.419873    -1.339323     0.884799
 P    -1.889073     0.081539    -0.166218
 P     1.881898     0.040830    -0.241521
 C    -0.002931     1.574731    -1.959850
 O     0.035339     2.624441    -2.431968
 C     2.420325    -0.750535     2.404066
 H     2.437364     0.321569     2.603519
 C     2.212480    -2.593628     0.839132
 C     2.034525    -3.185520    -0.527118
 H     2.111920    -4.280454    -0.490033
 H     2.788825    -2.810756    -1.235399
 H     1.056419    -2.913150    -0.951800
 C     2.600975    -1.636247     3.462843
 H     2.752719    -1.250362     4.473529
 C     2.408581    -3.464415     1.918460
 H     2.420602    -4.539957     1.720835
 C     2.592497    -3.004869     3.219566
 H     2.736676    -3.716456     4.036121
 C     3.435225     0.621541    -2.481821
 H     2.577553     1.227733    -2.779291
 C     4.504840    -0.871619    -0.920776
 H     4.484683    -1.435378     0.016267
 C     4.581059     0.599696    -3.270461
 H     4.616335     1.187422    -4.190985
 C     5.658077    -0.917943    -1.713696
 C     6.826858    -1.771026    -1.312660
 H     7.779907    -1.331540    -1.641499
 H     6.869319    -1.909142    -0.222613
 H     6.755899    -2.773754    -1.766672
 C     5.681379    -0.168386    -2.893991
 H     6.574962    -0.183740    -3.524323
 C     3.607674     1.993206     0.923166
 H     4.432059     1.304969     0.723649
 C     1.262280     2.548036     0.820412
 H     0.244334     2.270904     0.540631
 C     3.859081     3.231428     1.507142
 H     4.882793     3.508476     1.771318
 C     1.499789     3.801054     1.394961
 C     0.374825     4.766978     1.624580
 H     0.630021     5.770020     1.249438
 H    -0.546404     4.433958     1.127925
 H     0.148649     4.866218     2.698387
 C     2.816209     4.127274     1.738231
 H     3.030192     5.104389     2.181233
 C    -3.177364     2.475292     0.705410
 H    -3.697935     2.456483    -0.252265
 C    -1.626132     1.483605     2.283353
 C    -0.665317     0.419702     2.714367
 H    -0.116944    -0.005087     1.863793
 H    -1.191261    -0.419759     3.196771
 H     0.066023     0.819721     3.429614
 C    -3.455152     3.507134     1.599328
 H    -4.171093     4.284578     1.322585
 C    -1.923064     2.526293     3.167725
 H    -1.422633     2.542471     4.140039
 C    -2.827527     3.531597     2.840837
 H    -3.037469     4.333181     3.553126
 C    -3.307838     1.260516    -2.282913
 H    -2.526313     2.022464    -2.263616
 C    -4.283991    -0.774538    -1.446135
 H    -4.277803    -1.614897    -0.748913
 C    -4.313117     1.340794    -3.238309
 H    -4.321084     2.173435    -3.945930
 C    -5.293105    -0.717532    -2.418707
 C    -6.321643    -1.808325    -2.498315
 H    -5.881686    -2.734973    -2.902201
 H    -6.726019    -2.050830    -1.503775
 H    -7.160514    -1.526489    -3.150135
 C    -5.301714     0.358162    -3.307401
 H    -6.084279     0.424700    -4.068129
 C    -3.553701    -1.216264     1.702751
 H    -4.126583    -0.285890     1.706423
 C    -1.699030    -2.529878     0.905090
 H    -0.806634    -2.610969     0.280027
 C    -3.940085    -2.275193     2.515647
 H    -4.823153    -2.177034     3.151888
 C    -2.067887    -3.603327     1.726862
 C    -1.232626    -4.849679     1.753409
 H    -1.035842    -5.220422     0.735675
 H    -0.253184    -4.647446     2.216687
 H    -1.719536    -5.653473     2.323247
 C    -3.200758    -3.459720     2.530286
 H    -3.507022    -4.283055     3.181738
