  94
scf done:    -4302.507885
 C    -0.899784     0.525417    -3.302447
 H    -1.619964    -0.176332    -3.735575
 H    -1.297637     1.535195    -3.168874
 C     0.479903     0.323726    -3.511913
 H     0.797508    -0.519930    -4.135864
 H     1.170332     1.169533    -3.520374
 H     0.129386     1.280727    -1.346972
Co    -0.039271    -0.155633    -1.611717
 C    -1.349208     1.491796     1.038258
 C    -3.150118     0.875606    -1.126585
 C    -2.446298    -1.155435     0.728673
 C     1.622610    -1.466651     0.960148
 C     3.349167    -0.768065    -1.180122
 C     2.309275     1.319975     0.433156
 P     1.769852    -0.236326    -0.401290
 P    -1.679130     0.210305    -0.245638
 C    -0.258010    -1.853916    -2.000431
 O    -0.413723    -2.943603    -2.336691
 C    -1.596178     1.284209     2.400292
 H    -2.060399     0.354999     2.734068
 C    -0.740910     2.695796     0.653340
 H    -0.503719     2.862519    -0.399899
 C    -1.232281     2.234286     3.352575
 H    -1.402158     2.068319     4.417994
 C    -0.400586     3.667420     1.586850
 H     0.086725     4.596903     1.290108
 C    -0.637483     3.415537     2.931489
 F    -0.271453     4.321270     3.838409
 C    -3.591340     2.192060    -1.028146
 H    -3.090605     2.871519    -0.335910
 C    -3.824503     0.000452    -2.002481
 O    -3.355090    -1.260485    -2.043391
 C    -3.906986    -2.192068    -2.927582
 H    -4.964259    -2.404119    -2.690038
 H    -3.318632    -3.110658    -2.811196
 H    -3.835508    -1.850469    -3.975337
 C    -4.672832     2.651301    -1.782636
 H    -5.000505     3.689039    -1.690442
 C    -4.911035     0.451520    -2.755540
 H    -5.433756    -0.225902    -3.431492
 C    -5.329227     1.778098    -2.642989
 H    -6.178450     2.123557    -3.237601
 C    -1.819232    -2.399168     0.769964
 H    -0.859562    -2.519215     0.267955
 C    -3.690344    -1.012679     1.384226
 O    -4.252018     0.208323     1.349374
 C    -5.543633     0.404470     1.845832
 H    -6.273894    -0.261213     1.354103
 H    -5.804836     1.446296     1.621077
 H    -5.594257     0.248072     2.938039
 C    -2.384896    -3.486961     1.433711
 H    -1.861684    -4.444721     1.454570
 C    -4.269963    -2.102180     2.042974
 H    -5.231395    -1.994431     2.545775
 C    -3.613318    -3.332597     2.064914
 H    -4.075147    -4.174592     2.586710
 C     2.155422    -2.752121     0.799293
 H     2.767229    -2.981098    -0.076298
 C     0.819830    -1.220761     2.081374
 H     0.337500    -0.251186     2.205805
 C     1.912849    -3.754891     1.734701
 H     2.320586    -4.759947     1.610990
 C     0.588562    -2.204370     3.037990
 H    -0.043289    -2.014716     3.907303
 C     1.136944    -3.465214     2.850052
 F     0.901567    -4.422496     3.748296
 C     3.359626    -1.104674    -2.531123
 H     2.413898    -1.047315    -3.069899
 C     4.559450    -0.835856    -0.454124
 O     4.492984    -0.542651     0.854715
 C     5.654960    -0.535276     1.631645
 H     6.116737    -1.536623     1.688109
 H     5.351130    -0.224532     2.639197
 H     6.399561     0.182791     1.246415
 C     4.533255    -1.492451    -3.178135
 H     4.515485    -1.752378    -4.238398
 C     5.741023    -1.215097    -1.099682
 H     6.679878    -1.267517    -0.547854
 C     5.720718    -1.538855    -2.456753
 H     6.651762    -1.835724    -2.946365
 C     2.422290     1.486135     1.812578
 H     2.233020     0.637634     2.468656
 C     2.640127     2.415256    -0.394395
 O     2.599299     2.193923    -1.720748
 C     2.943932     3.218386    -2.607752
 H     2.266469     4.085453    -2.516246
 H     2.849624     2.800469    -3.617845
 H     3.983591     3.557225    -2.455816
 C     2.791312     2.706150     2.378373
 H     2.850929     2.807586     3.463822
 C     3.010715     3.642431     0.165929
 H     3.258711     4.488175    -0.475567
 C     3.076830     3.785323     1.550955
 H     3.362637     4.749579     1.978297
