 108
scf done:    -4039.183132
 C     0.284945    -2.506404    -2.554114
 H     0.807710    -2.339301    -3.501773
 H     0.777003    -3.239930    -1.908618
 C    -1.114022    -2.322737    -2.490836
 H    -1.653390    -2.003674    -3.390054
 H    -1.719010    -2.932033    -1.813195
 H    -0.043751    -1.670294    -0.338298
Co    -0.147886    -0.814244    -1.549664
 C     3.085558    -1.320022    -0.893350
 C     2.405847     1.416339    -1.273693
 C     1.478834     0.240184     1.212503
 C    -1.578109     1.950911    -0.229602
 C    -3.355786     0.094520    -1.543387
 C    -2.383090    -0.375965     1.160408
 P    -1.799016     0.142000    -0.523685
 P     1.676087    -0.175576    -0.606741
 C    -0.041700     0.215726    -2.953536
 O     0.080525     0.877150    -3.890197
 C     3.883197    -1.956181     0.060385
 H     3.707484    -1.810651     1.122632
 C     3.379051    -1.548899    -2.248625
 H     2.757643    -1.086508    -3.019571
 C     4.941796    -2.777672    -0.331049
 H     5.548784    -3.256834     0.442165
 C     4.443563    -2.352208    -2.631014
 H     4.649527    -2.498467    -3.695250
 C     5.249391    -2.988462    -1.675398
 C     6.381011    -3.879608    -2.094227
 H     6.002715    -4.825825    -2.515211
 H     6.998825    -3.405452    -2.872250
 H     7.032434    -4.130410    -1.245355
 H     2.685216     1.181431    -2.312425
 H     1.555628     2.110073    -1.334958
 C     3.558986     2.006737    -0.519729
 C     4.814958     1.385001    -0.566063
 H     4.944002     0.494087    -1.183028
 C     3.404111     3.177094     0.255777
 C     2.106576     3.932073     0.296137
 H     1.262953     3.319956     0.648875
 H     1.820571     4.299417    -0.702469
 H     2.180983     4.801852     0.963389
 C     5.893792     1.872346     0.164346
 H     6.857198     1.359695     0.116901
 C     4.502208     3.655170     0.981700
 H     4.380375     4.559839     1.583813
 C     5.735950     3.010391     0.951604
 H     6.573218     3.403773     1.533007
 H     1.502621     1.338445     1.235916
 H     0.444301    -0.055271     1.419536
 C     2.385832    -0.297365     2.279469
 C     3.518435     0.427086     2.664148
 H     3.729913     1.381370     2.178336
 C     2.109093    -1.533793     2.901635
 C     0.919372    -2.355937     2.502141
 H     0.893214    -2.531699     1.414807
 H    -0.030896    -1.859485     2.760203
 H     0.923892    -3.332169     3.005187
 C     4.391176    -0.060726     3.632683
 H     5.276628     0.518422     3.904595
 C     2.992625    -2.004707     3.878010
 H     2.785313    -2.966252     4.355718
 C     4.129379    -1.284985     4.241862
 H     4.806593    -1.681972     5.001968
 C    -1.408230     2.791230    -1.341662
 H    -1.402796     2.371669    -2.350141
 C    -1.552191     2.543217     1.037967
 H    -1.668939     1.938754     1.938085
 C    -1.258914     4.164125    -1.190776
 H    -1.144800     4.789634    -2.080716
 C    -1.390417     3.921142     1.185132
 H    -1.378526     4.351423     2.190449
 C    -1.248005     4.760024     0.078169
 C    -1.045431     6.237495     0.234580
 H    -1.343723     6.582922     1.234360
 H     0.015795     6.503655     0.094802
 H    -1.621527     6.804673    -0.511692
 H    -3.134756     0.750479    -2.401696
 H    -3.372524    -0.924279    -1.947509
 C    -4.666482     0.455051    -0.908214
 C    -4.890494     1.757036    -0.439284
 H    -4.097179     2.500992    -0.537003
 C    -5.700910    -0.500920    -0.801555
 C    -5.538776    -1.904537    -1.310368
 H    -4.693281    -2.419951    -0.830079
 H    -5.360888    -1.922732    -2.397839
 H    -6.442151    -2.496225    -1.110860
 C    -6.103376     2.122500     0.139091
 H    -6.250254     3.144525     0.496188
 C    -6.914377    -0.112982    -0.221415
 H    -7.715509    -0.852607    -0.139535
 C    -7.123098     1.180530     0.249590
 H    -8.081545     1.451143     0.699012
 H    -1.496272    -0.337469     1.815445
 H    -3.062259     0.414217     1.502095
 C    -3.060066    -1.713156     1.295485
 C    -2.469904    -2.869582     0.774408
 H    -1.511775    -2.773111     0.260299
 C    -4.281032    -1.818678     1.996895
 C    -4.925208    -0.631119     2.651942
 H    -5.127602     0.178972     1.935651
 H    -4.284850    -0.216551     3.447928
 H    -5.883473    -0.911835     3.109295
 C    -3.082829    -4.114483     0.892141
 H    -2.602515    -4.999209     0.467675
 C    -4.885065    -3.076893     2.100149
 H    -5.836276    -3.159032     2.633184
 C    -4.305313    -4.217336     1.549846
 H    -4.804574    -5.184596     1.645074
