  94
scf done:    -4302.519851
 C    -0.909763    -0.578402     3.313174
 H    -1.426906     0.367501     3.502187
 H    -1.512891    -1.457361     3.562189
 C     0.496696    -0.644644     3.400418
 H     1.080150     0.249512     3.638887
 H     0.970139    -1.578127     3.723786
 H    -0.043458     0.824148     1.606897
Co    -0.086641    -0.645900     1.468660
 C     1.506848     1.453570    -0.646755
 C     3.112244     0.396247     1.472191
 C     2.507153    -1.215662    -0.752667
 C    -1.974633    -1.006694    -1.394366
 C    -3.448159    -0.724271     1.005486
 C    -2.145355     1.545994    -0.116535
 P    -1.845811    -0.221953     0.268039
 P     1.684417    -0.049853     0.407347
 C    -0.026931    -2.391998     1.324950
 O     0.020777    -3.541054     1.283868
 C     1.814120     1.464110    -2.012016
 H     2.231330     0.571203    -2.482551
 C     0.993333     2.625175    -0.070407
 H     0.735122     2.634177     0.990664
 C     1.581083     2.596733    -2.793089
 H     1.794560     2.605927    -3.863443
 C     0.789504     3.772329    -0.826628
 H     0.387507     4.684034    -0.382614
 C     1.067376     3.733348    -2.187251
 F     0.818996     4.816091    -2.931085
 C     3.796006     1.617450     1.414567
 H     3.479492     2.388901     0.709816
 C     3.562567    -0.568833     2.377908
 H     3.043049    -1.528216     2.439070
 C     4.885284     1.865654     2.239989
 H     5.419351     2.817041     2.202441
 C     4.659589    -0.339372     3.202880
 H     4.979143    -1.120340     3.893182
 C     5.327916     0.890622     3.141932
 O     6.391365     1.216277     3.902628
 C     6.872621     0.281162     4.826371
 H     7.215256    -0.645921     4.333398
 H     7.726572     0.749107     5.332443
 H     6.110659     0.019324     5.581667
 C     1.766438    -2.235518    -1.365982
 H     0.710463    -2.358347    -1.123487
 C     3.862088    -1.099706    -1.080903
 H     4.468180    -0.321907    -0.609738
 C     2.349154    -3.095176    -2.284542
 H     1.771950    -3.888536    -2.762826
 C     4.464676    -1.958500    -1.997679
 H     5.524599    -1.837651    -2.222800
 C     3.705656    -2.964462    -2.610397
 O     4.192260    -3.842246    -3.507134
 C     5.543808    -3.767167    -3.864774
 H     6.207951    -3.924133    -2.996629
 H     5.720725    -4.566554    -4.595381
 H     5.792747    -2.797223    -4.330531
 C    -3.004688    -1.886455    -1.746580
 H    -3.804603    -2.101172    -1.035656
 C    -0.969026    -0.747461    -2.336201
 H    -0.157527    -0.063146    -2.084052
 C    -3.028035    -2.497743    -2.999143
 H    -3.823662    -3.190044    -3.280522
 C    -0.986261    -1.336740    -3.595271
 H    -0.203496    -1.137714    -4.329379
 C    -2.018322    -2.213991    -3.908797
 F    -2.037895    -2.793875    -5.107658
 C    -4.618878     0.036091     0.865458
 H    -4.585606     0.988971     0.332409
 C    -3.529740    -1.939909     1.689009
 H    -2.633840    -2.552860     1.807341
 C    -5.822643    -0.402827     1.395763
 H    -6.735498     0.187713     1.297283
 C    -4.735265    -2.401501     2.214262
 H    -4.756042    -3.357907     2.736979
 C    -5.893404    -1.626989     2.075291
 O    -7.101826    -1.973554     2.556871
 C    -7.232403    -3.184115     3.248440
 H    -6.600194    -3.210420     4.153423
 H    -8.284867    -3.262988     3.548792
 H    -6.977295    -4.050343     2.612681
 C    -2.164042     2.453339     0.957503
 H    -2.028868     2.081761     1.976368
 C    -2.325502     2.049862    -1.403247
 H    -2.342495     1.373123    -2.258884
 C    -2.327996     3.810509     0.745816
 H    -2.332828     4.519548     1.575950
 C    -2.462922     3.419827    -1.635143
 H    -2.562878     3.776131    -2.660325
 C    -2.445527     4.311388    -0.560596
 O    -2.507506     5.651073    -0.682327
 C    -2.485769     6.207813    -1.970174
 H    -3.376338     5.921373    -2.556550
 H    -2.484767     7.297392    -1.840599
 H    -1.578516     5.907994    -2.522629
