  96
scf done:    -3882.031394
 C     1.088058    -1.241185    -2.847899
 H     1.681261    -0.611956    -3.518065
 H     1.663339    -2.040083    -2.370118
 C    -0.283769    -1.420922    -3.098655
 H    -0.732954    -0.916675    -3.961528
 H    -0.773544    -2.364087    -2.836911
 H     0.109909    -1.465059    -0.721555
Co    -0.024493    -0.222104    -1.478488
 C     2.624949    -1.370501     0.089987
 C     3.146258     1.174271    -1.135582
 C     1.697015     1.124692     1.299489
 C    -2.557892     1.314621     0.221642
 C    -3.371053    -1.066182    -1.051067
 C    -1.629335    -1.246610     1.274468
 P    -1.858671    -0.308693    -0.302113
 P     1.783209     0.219057    -0.318453
 C    -0.410541     1.289331    -2.295270
 O    -0.740243     2.265670    -2.806447
 C     1.943601    -2.335303     0.847160
 H     0.946420    -2.122067     1.235560
 C     3.863144    -1.721362    -0.452975
 H     4.407681    -1.010029    -1.077041
 C     2.503133    -3.582472     1.089204
 H     1.945223    -4.305430     1.691749
 C     4.413049    -2.982873    -0.221598
 H     5.380669    -3.231139    -0.666557
 C     3.752710    -3.933393     0.559222
 C     4.345060    -5.286891     0.819659
 H     5.290653    -5.425205     0.277140
 H     4.548168    -5.431556     1.893117
 H     3.656560    -6.089523     0.511549
 C     2.921058     1.586879    -2.453220
 H     1.976376     1.317732    -2.924440
 C     4.358061     1.538585    -0.498302
 C     4.706800     1.204736     0.924754
 H     4.349063     0.214703     1.229908
 H     4.258869     1.932947     1.619505
 H     5.796763     1.235475     1.064329
 C     3.850611     2.343905    -3.158674
 H     3.637217     2.654137    -4.183938
 C     5.285081     2.292494    -1.231240
 H     6.225019     2.571837    -0.747043
 C     5.045501     2.697458    -2.540876
 H     5.793660     3.288789    -3.074535
 C     1.742975     0.428628     2.513402
 H     1.873317    -0.652899     2.511926
 C     1.540086     2.532647     1.325239
 C     1.462705     3.384632     0.090448
 H     0.893702     2.902744    -0.715267
 H     2.463548     3.601784    -0.313455
 H     0.974819     4.342646     0.318073
 C     1.646601     1.083508     3.737203
 H     1.686933     0.505646     4.663433
 C     1.451457     3.170807     2.569229
 H     1.334832     4.258212     2.587039
 C     1.502753     2.466684     3.768269
 H     1.428272     2.998233     4.719918
 C    -3.875984     1.711763    -0.023983
 H    -4.572929     1.031356    -0.516150
 C    -1.695054     2.238571     0.822246
 H    -0.655027     1.963196     0.992241
 C    -4.314013     2.982779     0.345258
 H    -5.349152     3.269151     0.138911
 C    -2.140164     3.496398     1.205976
 H    -1.440301     4.183315     1.690915
 C    -3.461854     3.896525     0.971459
 C    -3.929752     5.270294     1.351288
 H    -3.578101     5.550670     2.355799
 H    -3.540176     6.026159     0.649327
 H    -5.026456     5.341715     1.339491
 C    -3.399305    -1.085542    -2.449133
 H    -2.534688    -0.693430    -2.983002
 C    -4.498074    -1.529961    -0.329446
 C    -4.628592    -1.480391     1.166752
 H    -4.245149    -0.540557     1.584902
 H    -4.070364    -2.292963     1.656250
 H    -5.684783    -1.578375     1.454400
 C    -4.488749    -1.586921    -3.155295
 H    -4.478966    -1.586572    -4.247574
 C    -5.576342    -2.045314    -1.061331
 H    -6.448635    -2.410806    -0.512239
 C    -5.579597    -2.086934    -2.452973
 H    -6.443110    -2.495403    -2.983743
 C    -1.495180    -0.564202     2.487969
 H    -1.594061     0.521307     2.512849
 C    -1.503251    -2.656890     1.257788
 C    -1.638856    -3.476668     0.008761
 H    -1.148385    -2.985219    -0.843320
 H    -2.695979    -3.617725    -0.266955
 H    -1.186816    -4.468700     0.145854
 C    -1.239913    -1.240255     3.678231
 H    -1.132511    -0.675262     4.606844
 C    -1.253253    -3.315119     2.468173
 H    -1.157717    -4.404603     2.456714
 C    -1.119667    -2.625729     3.670770
 H    -0.920129    -3.171959     4.595774
