  78
scf done:    -4565.279695
 C     0.480325    -3.737454     0.866383
 H     0.818681    -4.408304     0.069385
 H     1.181635    -3.654847     1.701817
 C    -0.901835    -3.554115     1.075129
 H    -1.625928    -4.073035     0.438774
 H    -1.279427    -3.350753     2.082064
 H     0.197607    -1.479472     1.588109
Co    -0.090794    -1.916890     0.202730
 C     1.715292     0.874167     0.852280
 C     3.199928    -1.579098     0.761020
 C     2.342351    -0.312780    -1.637164
 C    -1.758681     0.745579    -0.956957
 C    -3.453882    -1.348517    -0.015400
 C    -2.126716     0.317501     1.873070
 P    -1.801797    -0.589871     0.308168
 P     1.719419    -0.776568     0.031587
 C    -0.208798    -2.425621    -1.470680
 O    -0.237209    -2.779705    -2.564462
 C     2.220680     2.023867     0.232898
 H     2.691283     1.954534    -0.749296
 C     1.124310     1.003930     2.115195
 H     0.724055     0.119242     2.611814
 C     2.104668     3.272844     0.838592
 H     2.486424     4.168964     0.346442
 C     1.000895     2.242857     2.734207
 H     0.511849     2.333199     3.705376
 C     1.481251     3.377660     2.081317
Cl     1.299848     4.932310     2.821248
 C     3.558619    -2.844538     0.276321
 C     3.972845    -0.992687     1.766912
 C     5.437912    -2.915917     1.791004
 C     5.083548    -1.662358     2.282743
 C     4.674318    -3.504085     0.781029
 H     2.955477    -3.310906    -0.506302
 H     4.946177    -4.487297     0.389531
 H     6.309309    -3.437564     2.193979
 H     5.677413    -1.194657     3.071841
 H     3.711537    -0.003875     2.149437
 C     1.409844     0.122224    -2.586911
 C     3.703074    -0.302121    -1.967306
 C     3.183867     0.588604    -4.154784
 C     4.118684     0.139697    -3.222787
 C     1.827156     0.581672    -3.833151
 H     0.346272     0.114056    -2.344176
 H     1.086220     0.940652    -4.551274
 H     3.513261     0.942717    -5.134628
 H     5.182968     0.138697    -3.470738
 H     4.443938    -0.635379    -1.237393
 C    -2.285669     0.517797    -2.234781
 H    -2.879607    -0.377745    -2.430049
 C    -1.008909     1.911011    -0.743442
 H    -0.581625     2.117863     0.238538
 C    -2.050070     1.408651    -3.278398
 H    -2.452386     1.218826    -4.274761
 C    -0.771906     2.812380    -1.775896
 H    -0.172654     3.707445    -1.602785
 C    -1.281173     2.547246    -3.045507
Cl    -0.934971     3.628820    -4.353910
 C    -3.543328    -2.434878    -0.894998
 C    -4.627191    -0.865770     0.577327
 C    -5.939173    -2.518354    -0.602396
 C    -5.859177    -1.448604     0.287353
 C    -4.777254    -3.008259    -1.195517
 H    -2.639042    -2.835944    -1.354259
 H    -4.826519    -3.850567    -1.889641
 H    -6.906081    -2.974187    -0.828527
 H    -6.763728    -1.062264     0.763322
 H    -4.581597    -0.030830     1.278807
 C    -1.836473    -0.332209     3.078658
 C    -2.684199     1.601135     1.915961
 C    -2.604714     1.584205     4.331449
 C    -2.911059     2.234137     3.137331
 C    -2.076729     0.293327     4.299212
 H    -1.396588    -1.331770     3.048984
 H    -1.842325    -0.227763     5.230538
 H    -2.780965     2.082102     5.287999
 H    -3.330480     3.242849     3.153260
 H    -2.939047     2.118322     0.988834
