 102
scf done:    -4158.988405
 C    -0.490733     2.955175    -1.874254
 H    -0.819362     2.971354    -2.919049
 H    -1.185588     3.440143    -1.182959
 C     0.885175     2.920006    -1.569615
 H     1.629526     2.913628    -2.373664
 H     1.226606     3.403022    -0.650193
 H    -0.258005     1.588822     0.177662
Co     0.028831     1.120306    -1.217624
 C    -3.105240     1.634156    -0.446663
 C    -2.718992    -0.794856    -1.959562
 C    -1.903323    -0.849125     0.808965
 C     1.488364    -1.571142     0.216935
 C     3.157454    -0.004996    -1.515515
 C     2.397701     1.036865     1.238091
 P     1.749790     0.181389    -0.300143
 P    -1.874194     0.291057    -0.683431
 C     0.160665     0.385057    -2.790587
 O     0.194036    -0.156119    -3.809159
 C    -3.357416     2.236213     0.791043
 H    -2.903155     1.845960     1.699651
 C    -3.679478     2.216212    -1.587062
 H    -3.459333     1.816584    -2.579105
 C    -4.195691     3.344093     0.898655
 H    -4.401873     3.803368     1.866900
 C    -4.518321     3.321275    -1.498144
 H    -4.966493     3.771202    -2.385736
 C    -4.775561     3.868994    -0.246691
 F    -5.581362     4.924700    -0.150727
 H    -2.888197    -0.151590    -2.836269
 H    -1.940145    -1.504312    -2.270805
 C    -3.974890    -1.506727    -1.547135
 C    -5.179995    -0.798622    -1.434588
 H    -5.197874     0.263804    -1.678037
 C    -3.970948    -2.888212    -1.249110
 C    -2.743798    -3.737171    -1.425992
 H    -1.911686    -3.418562    -0.780271
 H    -2.373687    -3.700894    -2.463668
 H    -2.959082    -4.787223    -1.185988
 C    -6.350271    -1.411859    -0.999366
 H    -7.269968    -0.828380    -0.916018
 C    -5.155759    -3.487314    -0.803868
 H    -5.146663    -4.554466    -0.566195
 C    -6.336873    -2.764135    -0.667588
 H    -7.244759    -3.259594    -0.315894
 H    -2.229822    -1.817093     0.407631
 H    -0.846692    -0.959842     1.075933
 C    -2.733839    -0.533721     2.016793
 C    -4.099767    -0.834189     2.017073
 H    -4.540659    -1.304510     1.136102
 C    -2.157817     0.066611     3.155907
 C    -0.696893     0.409321     3.194532
 H    -0.410793     1.041787     2.339239
 H    -0.070183    -0.496330     3.142851
 H    -0.437915     0.944753     4.118111
 C    -4.904716    -0.528528     3.110363
 H    -5.970808    -0.765192     3.081852
 C    -2.980361     0.364367     4.247337
 H    -2.537059     0.835491     5.129106
 C    -4.344212     0.079231     4.230680
 H    -4.964659     0.328196     5.094906
 C     0.934400    -2.417092    -0.758237
 H     0.674010    -2.012869    -1.739861
 C     1.792017    -2.122999     1.464694
 H     2.234518    -1.513679     2.252652
 C     0.730293    -3.769592    -0.515180
 H     0.327376    -4.435147    -1.280336
 C     1.560365    -3.470765     1.739125
 H     1.791748    -3.901230     2.714954
 C     1.038711    -4.281127     0.741898
 F     0.824211    -5.569681     0.989071
 H     2.666878    -0.519411    -2.358548
 H     3.332809     1.021187    -1.864928
 C     4.443572    -0.700193    -1.164054
 C     4.445863    -2.063766    -0.834657
 H     3.508181    -2.618894    -0.847570
 C     5.677297    -0.016070    -1.223787
 C     5.773851     1.401282    -1.704871
 H     5.149149     2.084657    -1.113782
 H     5.451171     1.484780    -2.755800
 H     6.808439     1.764000    -1.644583
 C     5.618230    -2.732670    -0.495047
 H     5.582960    -3.793506    -0.236548
 C     6.844652    -0.700980    -0.867205
 H     7.795867    -0.162690    -0.899397
 C     6.825819    -2.040746    -0.490374
 H     7.755210    -2.546423    -0.217436
 H     1.604021     1.767161     1.440953
 H     2.366300     0.315417     2.063212
 C     3.719175     1.753558     1.233672
 C     3.767826     3.089065     0.811703
 H     2.853196     3.561140     0.448157
 C     4.894018     1.153612     1.732833
 C     4.899595    -0.250204     2.257525
 H     4.532120    -0.966627     1.508450
 H     4.264082    -0.344296     3.154638
 H     5.914880    -0.559898     2.537807
 C     4.944942     3.830034     0.859911
 H     4.948688     4.870369     0.527122
 C     6.072254     1.908341     1.763662
 H     6.983326     1.437929     2.143017
 C     6.109123     3.231920     1.334699
 H     7.044298     3.795189     1.377664
