 108
scf done:    -3739.375636
 C    -0.710805     0.343139    -3.318901
 H    -1.212706    -0.485289    -3.831798
 H    -1.283224     1.276133    -3.362697
 C     0.705354     0.407472    -3.306348
 H     1.293450    -0.370741    -3.807622
 H     1.178197     1.393600    -3.330263
 H     0.099491     1.331146    -1.238322
Co     0.005536    -0.108665    -1.490697
 C    -1.746883     1.731316     0.818914
 C    -3.307455     0.353319    -1.219877
 C    -2.103404    -1.135031     1.092601
 C     1.778324    -1.601813     0.944819
 C     3.365975    -0.480758    -1.180328
 C     2.117739     1.368349     0.821178
 P     1.781742    -0.142821    -0.216786
 P    -1.747212     0.174015    -0.203217
 C    -0.067913    -1.811781    -1.896818
 O    -0.097673    -2.891706    -2.296630
 C    -1.682506     1.657892     2.219265
 H    -1.699681     0.689214     2.714931
 C    -1.749041     3.021009     0.227653
 C    -1.839046     3.256825    -1.251210
 H    -2.881388     3.194172    -1.603496
 H    -1.250431     2.511675    -1.803158
 H    -1.466917     4.258329    -1.507005
 C    -1.608071     2.789211     3.027887
 H    -1.556547     2.675810     4.113283
 C    -1.679166     4.147032     1.057924
 H    -1.674675     5.134572     0.588523
 C    -1.607258     4.049555     2.443161
 H    -1.549174     4.951638     3.056586
 H    -2.944044     0.992956    -2.039671
 C    -4.520388     1.056838    -0.608977
 H    -4.224948     2.000748    -0.125966
 H    -4.965478     0.435536     0.182447
 C    -5.571999     1.313382    -1.686288
 H    -6.452376     1.809214    -1.245656
 H    -5.161053     2.017162    -2.433563
 C    -5.982893     0.021711    -2.385778
 H    -6.713592     0.231449    -3.183867
 H    -6.498312    -0.631589    -1.658018
 C    -4.775388    -0.718838    -2.950436
 H    -4.325931    -0.122111    -3.764527
 H    -5.086537    -1.674983    -3.401870
 C    -3.717149    -0.965339    -1.879208
 H    -4.127438    -1.653256    -1.120278
 H    -2.836650    -1.460766    -2.315360
 H    -1.335581    -0.928043     1.858802
 C    -1.802736    -2.560328     0.622045
 H    -0.774992    -2.611254     0.243728
 H    -2.464898    -2.839115    -0.213781
 C    -1.958181    -3.564309     1.761177
 H    -1.772328    -4.581952     1.381633
 H    -1.169410    -3.369694     2.507715
 C    -3.318885    -3.478287     2.438109
 H    -3.376846    -4.187723     3.279771
 H    -4.107344    -3.777943     1.723628
 C    -3.594809    -2.057605     2.912461
 H    -2.869291    -1.786475     3.701957
 H    -4.594478    -1.985370     3.371373
 C    -3.480316    -1.067393     1.758085
 H    -4.247926    -1.320905     1.009142
 H    -3.708377    -0.047056     2.100462
 C     2.013486    -2.819523     0.277078
 H     2.203537    -2.810954    -0.797380
 C     1.470936    -1.660230     2.324537
 C     1.106101    -0.484625     3.187810
 H     0.368460     0.172461     2.713180
 H     1.976565     0.137767     3.440493
 H     0.672457    -0.835454     4.134466
 C     2.002373    -4.048748     0.921372
 H     2.189777    -4.961615     0.351795
 C     1.479857    -2.913340     2.960790
 H     1.250280    -2.947219     4.029475
 C     1.747343    -4.097573     2.288499
 H     1.736205    -5.049636     2.823786
 H     3.009889    -1.222262    -1.918790
 C     4.570980    -1.089688    -0.456165
 H     4.277525    -1.948975     0.162135
 H     5.005048    -0.347859     0.232212
 C     5.634404    -1.514745    -1.466614
 H     6.501234    -1.947061    -0.940438
 H     5.223615    -2.321344    -2.101003
 C     6.074540    -0.352542    -2.349865
 H     6.798999    -0.694922    -3.106765
 H     6.605181     0.390412    -1.726709
 C     4.881915     0.323106    -3.016829
 H     4.423254    -0.369388    -3.745507
 H     5.210671     1.204320    -3.591644
 C     3.827788     0.732028    -1.992527
 H     4.268352     1.478792    -1.310577
 H     2.976111     1.214857    -2.487332
 H     1.273016     1.356110     1.527169
 C     1.983330     2.702714     0.079448
 H     1.045521     2.714740    -0.494022
 H     2.800567     2.822305    -0.649027
 C     2.014967     3.860168     1.072320
 H     1.923915     4.817443     0.533296
 H     1.129182     3.789523     1.727161
 C     3.280163     3.846455     1.922291
 H     3.259014     4.664645     2.660646
 H     4.155857     4.035291     1.274702
 C     3.461849     2.504003     2.621245
 H     2.654815     2.369852     3.364762
 H     4.409987     2.484763     3.183286
 C     3.421429     1.351333     1.621326
 H     4.268341     1.463536     0.924386
 H     3.570653     0.384295     2.126125
