  88
scf done:    -5863.583170
 C    -0.731178    -3.648737     0.353836
 H     0.043829    -4.320704    -0.027541
 H    -0.849939    -3.666251     1.441959
 C    -1.824814    -3.310547    -0.466189
 H    -1.896487    -3.727444    -1.475689
 H    -2.788403    -3.062210    -0.015349
 H    -1.326649    -1.353584     0.825572
Co    -0.527366    -1.753341    -0.347343
 C     0.771969    -1.117241     2.710102
 O     2.443910    -2.082447     0.952059
 O     1.607894     0.338082     0.573796
 C    -0.864349     1.061820    -2.255295
 O    -3.072742    -0.003011    -1.379363
 O    -1.525298     1.091190     0.361381
 P    -1.469876    -0.000313    -0.918956
 P     1.028390    -1.194329     0.919197
 C     0.274761    -2.148856    -1.875725
 O     0.728786    -2.409434    -2.893529
 C    -0.044380    -0.093945     3.210309
 H    -0.472793     0.641923     2.524406
 C     1.289137    -2.074154     3.585015
 H     1.925440    -2.872947     3.199233
 C    -0.312862    -0.023545     4.570718
 H    -0.941891     0.785895     4.951713
 C     1.004437    -1.996952     4.947373
 H     1.415661    -2.750093     5.624978
 C     0.205693    -0.972569     5.464307
 C    -0.098121    -0.883183     6.930459
 H     0.244500     0.076735     7.348121
 H    -1.182376    -0.945645     7.114795
 H     0.387736    -1.691055     7.494649
 C     2.981719    -2.537554    -0.221593
 C     3.577909    -1.651213    -1.120036
 H     3.631432    -0.588727    -0.877424
 C     2.933310    -3.901223    -0.506228
 H     2.467792    -4.576827     0.213139
 C     4.108061    -2.128471    -2.314406
 H     4.571004    -1.446320    -3.028821
 C     3.465047    -4.381955    -1.698061
 H     3.426579    -5.445771    -1.936824
 C     4.042871    -3.490725    -2.601671
Cl     4.690305    -4.083667    -4.093635
 C     2.669206     1.030383     1.075829
 C     2.974457     2.228449     0.420685
 H     2.370080     2.527209    -0.438519
 C     3.449651     0.610785     2.155583
 H     3.237287    -0.329834     2.659920
 C     4.034980     3.016646     0.851772
 H     4.274180     3.952744     0.344745
 C     4.512411     1.401259     2.586196
 H     5.124991     1.081320     3.430514
 C     4.800978     2.600989     1.940383
Cl     6.124338     3.578199     2.484782
 C    -1.698667     1.866468    -3.040797
 H    -2.779883     1.813828    -2.906723
 C     0.519918     1.129377    -2.441851
 H     1.177927     0.511405    -1.827465
 C    -1.149507     2.728584    -3.981803
 H    -1.812009     3.356039    -4.584482
 C     1.059825     1.998281    -3.385598
 H     2.144447     2.041669    -3.517963
 C     0.237002     2.813969    -4.169660
 C     0.812377     3.738506    -5.200635
 H     0.644737     3.344558    -6.216550
 H     0.338484     4.730682    -5.156388
 H     1.895621     3.867957    -5.069162
 C    -4.033595    -0.727586    -0.736132
 C    -4.904463    -1.486285    -1.518235
 H    -4.770976    -1.489247    -2.601270
 C    -4.173622    -0.706995     0.653913
 H    -3.490443    -0.111635     1.260777
 C    -5.910577    -2.233994    -0.917047
 H    -6.593842    -2.834680    -1.519314
 C    -5.174259    -1.463613     1.257813
 H    -5.287297    -1.464245     2.342989
 C    -6.037840    -2.224578     0.472205
Cl    -7.283008    -3.164302     1.226464
 C    -1.774380     2.426628     0.196899
 C    -3.067748     2.895105    -0.036573
 H    -3.895435     2.187915    -0.105745
 C    -0.708419     3.320063     0.295173
 H     0.290309     2.926604     0.486808
 C    -3.290700     4.260939    -0.188588
 H    -4.295875     4.642405    -0.374611
 C    -0.927792     4.684844     0.145829
 H    -0.101105     5.393243     0.218066
 C    -2.219433     5.148746    -0.102415
Cl    -2.496336     6.848145    -0.301012
