  94
scf done:    -5023.198459
 C     0.717602    -1.587738    -2.545032
 H    -0.201458    -1.602077    -3.139233
 H     1.616707    -1.306112    -3.102336
 C     0.817758    -2.369646    -1.382401
 H    -0.012804    -3.009491    -1.069339
 H     1.791437    -2.727699    -1.034433
 H     0.416579    -0.479107     0.606773
Co     0.482031    -0.415292    -0.899149
 C     3.467785    -1.226682     0.530373
 O     3.406217     0.609438    -1.443707
 O     2.530019     1.162631     0.951188
 C    -2.260854     0.610167     0.669198
 O    -2.556768    -0.902108    -1.575677
 O    -1.752086    -2.053608     0.595146
 P    -1.480519    -0.697894    -0.326549
 P     2.411370     0.024549    -0.250897
 C     0.183903     1.044803    -1.802488
 O    -0.047929     1.962537    -2.457280
 C     3.421523    -1.440649     1.910762
 H     2.805187    -0.792784     2.536825
 C     4.263286    -2.057232    -0.267278
 H     4.314629    -1.897569    -1.346744
 C     4.164718    -2.462274     2.492605
 H     4.138585    -2.631715     3.570103
 C     5.011054    -3.081216     0.303936
 H     5.639846    -3.726306    -0.311247
 C     4.956124    -3.277014     1.683345
Cl     5.884853    -4.547939     2.401776
 C     4.748097     0.887427    -1.380722
 C     5.395600     1.303426    -0.218313
 H     4.833907     1.419783     0.708302
 C     5.468260     0.746829    -2.568151
 H     4.938671     0.422169    -3.466120
 C     6.764230     1.565604    -0.258308
 H     7.264720     1.885937     0.659620
 C     6.831072     1.017734    -2.587982
 H     7.383760     0.901262    -3.524613
 C     7.508878     1.430935    -1.433138
 C     8.978199     1.737226    -1.469500
 H     9.398088     1.813869    -0.456626
 H     9.173730     2.693584    -1.982411
 H     9.538567     0.959749    -2.011016
 C     1.677086     2.237980     1.019668
 C     1.704711     3.230322     0.042651
 H     2.385296     3.133012    -0.805314
 C     0.808378     2.341157     2.101991
 H     0.790902     1.545983     2.849285
 C     0.850601     4.323099     0.153980
 H     0.864992     5.088977    -0.626121
 C    -0.024837     3.450694     2.209217
 H    -0.704477     3.529368     3.061168
 C    -0.024029     4.458694     1.238121
 C    -0.918774     5.657483     1.364953
 H    -1.789515     5.445546     2.001637
 H    -1.284099     5.990749     0.381939
 H    -0.380565     6.508313     1.815515
 C    -2.642199     1.814786     0.066561
 H    -2.511746     1.964262    -1.006738
 C    -2.405858     0.460803     2.050418
 H    -2.074734    -0.462252     2.529568
 C    -3.193822     2.840122     0.824742
 H    -3.496487     3.778027     0.357742
 C    -2.952145     1.482196     2.821423
 H    -3.065793     1.372646     3.901103
 C    -3.347285     2.663641     2.198454
Cl    -4.000025     3.951536     3.157996
 C    -3.802985    -0.371377    -1.786271
 C    -4.857021    -0.531103    -0.889229
 H    -4.713272    -1.091088     0.034869
 C    -3.994655     0.346225    -2.967151
 H    -3.150558     0.467062    -3.649273
 C    -6.094658     0.036841    -1.181998
 H    -6.913022    -0.088981    -0.467800
 C    -5.238645     0.902348    -3.245169
 H    -5.375216     1.466710    -4.171945
 C    -6.313735     0.760482    -2.358547
 C    -7.660718     1.342325    -2.676352
 H    -8.253676     1.506978    -1.765246
 H    -8.241003     0.667993    -3.328461
 H    -7.570738     2.304003    -3.202996
 C    -2.892731    -2.813212     0.590898
 C    -3.225384    -3.582270    -0.526315
 H    -2.581883    -3.553520    -1.406389
 C    -3.705053    -2.846615     1.721949
 H    -3.434094    -2.257023     2.598188
 C    -4.383225    -4.349885    -0.512744
 H    -4.639886    -4.937388    -1.398565
 C    -4.859252    -3.629040     1.721941
 H    -5.490170    -3.646103     2.614740
 C    -5.227331    -4.385058     0.605670
 C    -6.482637    -5.207899     0.593632
 H    -7.190386    -4.841650    -0.167413
 H    -6.992635    -5.179330     1.566633
 H    -6.268886    -6.261640     0.355188
