  88
scf done:    -4025.705114
 C     1.268891    -0.964361    -3.300286
 H     1.438586    -0.190631    -4.055940
 H     2.180518    -1.460195    -2.952353
 C     0.034568    -1.635638    -3.244251
 H    -0.765066    -1.385181    -3.947939
 H    -0.013457    -2.657629    -2.859044
 H     0.818463    -1.379797    -0.956694
Co     0.167902    -0.295193    -1.728723
 C     3.310299    -0.139662    -0.611495
 O     2.057371     2.147433    -0.604604
 O     1.237504     0.368272     1.080619
 C    -2.553417     0.406940     0.224217
 O    -2.533995    -1.864065    -1.234381
 O    -1.106152    -1.626583     0.914686
 P    -1.443476    -0.829960    -0.508358
 P     1.630213     0.538318    -0.531258
 C    -0.532831     1.074611    -2.584217
 O    -0.986906     1.943112    -3.178849
 C     3.522307    -1.436470    -0.126300
 H     2.703570    -1.989391     0.341014
 C     4.368685     0.547127    -1.209368
 H     4.211034     1.559423    -1.585778
 C     4.777549    -2.021853    -0.225037
 H     4.926838    -3.030942     0.169407
 C     5.622612    -0.053079    -1.308975
 H     6.444486     0.496099    -1.776623
 C     5.850740    -1.343256    -0.820153
 C     7.195922    -1.996782    -0.938706
 H     7.961103    -1.288136    -1.284800
 H     7.525095    -2.411553     0.026515
 H     7.165451    -2.833493    -1.655636
 C     1.114592     3.128180    -0.751840
 C     1.366133     4.135601    -1.683058
 H     2.291185     4.099329    -2.261296
 C    -0.061884     3.134351     0.000182
 H    -0.253242     2.345793     0.728549
 C     0.433183     5.151990    -1.864381
 H     0.629358     5.937862    -2.597650
 C    -0.991404     4.153354    -0.196847
 H    -1.914772     4.144236     0.385859
 C    -0.750951     5.162726    -1.126272
 H    -1.484735     5.957305    -1.277825
 C     1.792870     0.947410     2.184049
 C     3.112630     1.397972     2.255599
 H     3.771114     1.314221     1.392709
 C     0.948718     1.069653     3.292064
 H    -0.084254     0.730174     3.197192
 C     3.576899     1.956475     3.445523
 H     4.610227     2.308105     3.496591
 C     1.427377     1.624876     4.474474
 H     0.760220     1.715509     5.335118
 C     2.746181     2.070948     4.558322
 H     3.122435     2.510504     5.484454
 C    -3.251249     1.254274    -0.645160
 H    -3.142120     1.143997    -1.726593
 C    -2.706238     0.578687     1.601797
 H    -2.182946    -0.092655     2.283534
 C    -4.085038     2.245952    -0.144428
 H    -4.624433     2.894650    -0.839889
 C    -3.531526     1.586070     2.095862
 H    -3.639169     1.708859     3.177124
 C    -4.233229     2.437241     1.235711
 C    -5.096150     3.542692     1.768275
 H    -4.565572     4.509023     1.727497
 H    -6.016976     3.654585     1.176991
 H    -5.378256     3.366733     2.815780
 C    -3.736318    -2.220751    -0.675689
 C    -4.907414    -1.722512    -1.246830
 H    -4.830624    -1.050352    -2.102910
 C    -3.795546    -3.088874     0.415427
 H    -2.873445    -3.478485     0.847244
 C    -6.142704    -2.091037    -0.720969
 H    -7.058212    -1.699201    -1.170589
 C    -5.037446    -3.448726     0.935329
 H    -5.083127    -4.128893     1.789265
 C    -6.212751    -2.952163     0.373758
 H    -7.182596    -3.238481     0.786471
 C    -0.159400    -2.595826     1.055832
 C    -0.013222    -3.624678     0.120635
 H    -0.660589    -3.650691    -0.757797
 C     0.652617    -2.552553     2.190049
 H     0.530803    -1.731711     2.897217
 C     0.962966    -4.599040     0.321107
 H     1.080309    -5.396668    -0.416155
 C     1.616573    -3.538041     2.384149
 H     2.254359    -3.495243     3.270117
 C     1.781150    -4.561572     1.449374
 H     2.542971    -5.329114     1.602024
