  96
scf done:    -3882.052312
 C    -0.531041     0.423433    -3.545419
 H    -0.985694    -0.400477    -4.106323
 H    -1.126041     1.341494    -3.552061
 C     0.873823     0.484557    -3.423433
 H     1.498012    -0.291853    -3.878019
 H     1.373950     1.456030    -3.358368
 H    -0.078540     1.373509    -1.405104
Co     0.031649    -0.078366    -1.673919
 C    -1.571648     1.135881     1.056519
 C    -3.161921     0.878995    -1.315226
 C    -2.503611    -1.411296     0.229166
 C     1.657836    -1.078416     1.092132
 C     3.360163    -0.631142    -1.156259
 C     2.328880     1.600147     0.277262
 P     1.791464    -0.018578    -0.404427
 P    -1.732701     0.108627    -0.462550
 C    -0.066641    -1.799990    -1.981733
 O    -0.181635    -2.921329    -2.213488
 C    -2.081996     0.735226     2.295231
 H    -2.651172    -0.192499     2.376790
 C    -0.848026     2.334072     0.995879
 H    -0.440092     2.663113     0.039329
 C    -1.837201     1.491231     3.441134
 H    -2.231019     1.147735     4.402027
 C    -0.606552     3.084152     2.139512
 H    -0.011031     3.998114     2.060391
 C    -1.083443     2.667908     3.389943
 C    -0.785360     3.466241     4.624598
 H    -1.225539     4.474458     4.562241
 H    -1.181703     2.980642     5.527212
 H     0.300454     3.596734     4.756364
 C    -3.620481     0.283987    -2.498917
 H    -3.118514    -0.608613    -2.879939
 C    -3.813788     2.021050    -0.847385
 H    -3.482044     2.497207     0.077807
 C    -4.705135     0.813754    -3.184729
 H    -5.050380     0.327621    -4.101793
 C    -4.894085     2.557126    -1.549625
 H    -5.389327     3.453960    -1.166592
 C    -5.359604     1.966915    -2.726780
 C    -6.509245     2.550978    -3.494180
 H    -7.038030     3.316635    -2.909232
 H    -6.160916     3.025367    -4.426527
 H    -7.236515     1.775554    -3.779971
 C    -3.887885    -1.582207     0.344311
 H    -4.564384    -0.808033    -0.024835
 C    -1.664586    -2.418360     0.719734
 H    -0.581394    -2.308423     0.646883
 C    -4.412653    -2.730033     0.933723
 H    -5.497759    -2.843424     1.012734
 C    -2.194808    -3.557511     1.315356
 H    -1.513274    -4.324831     1.693507
 C    -3.578177    -3.738239     1.429972
 C    -4.146644    -4.988473     2.034302
 H    -4.260028    -5.776281     1.270669
 H    -3.490564    -5.390713     2.820219
 H    -5.140135    -4.811509     2.471193
 C     2.041695    -2.423218     1.046241
 H     2.579964    -2.807993     0.177010
 C     0.978160    -0.622752     2.231220
 H     0.661753     0.418845     2.301600
 C     1.733773    -3.287802     2.095405
 H     2.039656    -4.335840     2.030568
 C     0.680390    -1.489968     3.275547
 H     0.137744    -1.105394     4.143718
 C     1.038010    -2.842863     3.223886
 C     0.651807    -3.782347     4.327725
 H    -0.425584    -4.014771     4.280530
 H     1.200750    -4.732420     4.262466
 H     0.843287    -3.342712     5.318332
 C     3.310715    -1.647149    -2.117992
 H     2.346787    -2.048767    -2.433009
 C     4.615280    -0.133584    -0.787488
 H     4.689739     0.666411    -0.048470
 C     4.477886    -2.163381    -2.673506
 H     4.408357    -2.964538    -3.414727
 C     5.778583    -0.643584    -1.356778
 H     6.746302    -0.235101    -1.051605
 C     5.734500    -1.667807    -2.309063
 C     6.988627    -2.192026    -2.944096
 H     7.852305    -2.098103    -2.269957
 H     6.885735    -3.249591    -3.227527
 H     7.227532    -1.629753    -3.862484
 C     2.939742     1.745056     1.527162
 H     3.112475     0.869149     2.155790
 C     2.153481     2.744202    -0.509570
 H     1.676596     2.645825    -1.487510
 C     3.326099     3.001747     1.988825
 H     3.791624     3.089845     2.974639
 C     2.552168     3.994524    -0.050781
 H     2.401901     4.872086    -0.686102
 C     3.132858     4.150269     1.214778
 C     3.511605     5.508609     1.727324
 H     3.940274     6.134495     0.930588
 H     2.628682     6.042329     2.117648
 H     4.243649     5.442794     2.544695
