  88
scf done:    -5863.582019
 C    -1.347785     0.253952     3.024171
 H    -2.109692     1.017796     3.208603
 H    -1.734157    -0.767008     2.973114
 C    -0.012183     0.491051     3.380362
 H     0.271496     1.437981     3.850763
 H     0.643837    -0.348941     3.621187
 H     0.089815    -0.781262     1.292488
Co    -0.248482     0.660099     1.359344
 C    -1.044763    -1.102461    -1.493976
 O    -2.809538    -0.951223     0.570406
 O    -2.423594     1.050204    -1.021022
 C     2.566681     2.278297     0.346836
 O     2.888445     0.074919     1.705799
 O     1.975337    -0.180707    -0.687695
 P     1.718177     0.705652     0.692798
 P    -1.569594    -0.055849    -0.089241
 C    -0.497533     2.410390     1.410156
 O    -0.577921     3.547688     1.502849
 C    -0.956070    -0.520480    -2.765806
 H    -1.246615     0.522247    -2.894002
 C    -0.674693    -2.452700    -1.312448
 C    -0.789524    -3.175952    -0.002295
 H    -1.823010    -3.524609     0.153091
 H    -0.525811    -2.544631     0.856973
 H    -0.139141    -4.061464     0.006879
 C    -0.529609    -1.257162    -3.865736
 H    -0.482012    -0.787655    -4.850889
 C    -0.231371    -3.167178    -2.432833
 H     0.056996    -4.213622    -2.302878
 C    -0.164263    -2.590478    -3.696585
 H     0.177242    -3.183464    -4.548287
 C    -3.775325    -1.682831    -0.059102
 C    -4.217742    -1.435191    -1.360326
 H    -3.795131    -0.613865    -1.936761
 C    -4.345200    -2.717914     0.687392
 H    -3.992112    -2.884077     1.706922
 C    -5.212813    -2.237435    -1.913709
 H    -5.562927    -2.053815    -2.930616
 C    -5.342436    -3.514223     0.137120
 H    -5.790619    -4.323971     0.714934
 C    -5.769229    -3.274245    -1.168933
Cl    -7.005737    -4.268920    -1.865312
 C    -2.905285     2.211797    -0.491368
 C    -3.657891     2.221339     0.684802
 H    -3.874926     1.281732     1.195332
 C    -2.632658     3.403068    -1.162591
 H    -2.041048     3.372701    -2.079008
 C    -4.115020     3.429684     1.201253
 H    -4.695638     3.453547     2.124622
 C    -3.096830     4.610288    -0.653280
 H    -2.882716     5.550232    -1.163891
 C    -3.829402     4.619160     0.533379
Cl    -4.391077     6.123250     1.181741
 C     3.507290     2.779465     1.255232
 H     3.792636     2.170873     2.114336
 C     2.169378     3.052516    -0.764490
 C     1.165930     2.566350    -1.769495
 H     0.320569     2.054376    -1.287301
 H     1.621166     1.845179    -2.466900
 H     0.772240     3.405064    -2.359743
 C     4.079459     4.032917     1.065980
 H     4.814814     4.410561     1.779852
 C     2.761025     4.308766    -0.932535
 H     2.465471     4.916906    -1.791573
 C     3.705213     4.798594    -0.035267
 H     4.145203     5.785817    -0.194808
 C     2.814845    -1.152378     2.294722
 C     3.219464    -1.254307     3.626957
 H     3.543586    -0.353060     4.150267
 C     2.394536    -2.289962     1.601648
 H     2.098098    -2.212528     0.555375
 C     3.197205    -2.484990     4.272757
 H     3.509289    -2.572677     5.314502
 C     2.363228    -3.521386     2.250708
 H     2.033548    -4.416067     1.720256
 C     2.761134    -3.616112     3.582125
Cl     2.720155    -5.150716     4.385332
 C     3.103098    -0.254066    -1.457112
 C     2.911414    -0.650650    -2.782242
 H     1.897663    -0.871730    -3.118269
 C     4.389364     0.013637    -0.984156
 H     4.547454     0.300081     0.054205
 C     3.997191    -0.767917    -3.641375
 H     3.854450    -1.078304    -4.677628
 C     5.476411    -0.098661    -1.848089
 H     6.485425     0.110824    -1.489863
 C     5.279484    -0.484456    -3.171480
Cl     6.636933    -0.621776    -4.240693
