  68
scf done:    -3115.671117
 C    -3.681120    -0.879989     1.113642
 H    -4.410586    -1.319501     0.424263
 H    -3.428501    -1.528206     1.959031
 C    -3.657886     0.525810     1.277583
 H    -4.370233     1.138802     0.716014
 H    -3.392029     0.950284     2.251809
 H    -1.389133    -0.272045     1.551351
Co    -2.055024    -0.093425     0.231904
 C     0.957736    -1.566892     0.566941
 C    -1.245673    -3.343754     0.737849
 C    -0.458228    -2.322244    -1.839393
 C     0.797447     1.617527    -0.481128
 C    -1.530310     3.156282    -0.717366
 C    -0.598901     2.420794     1.928789
 P    -0.885537     1.711882     0.250221
 P    -0.746079    -1.767730    -0.096184
 C    -2.688820     0.044081    -1.389046
 O    -3.053890     0.121721    -2.480089
 C     2.107303    -1.590849    -0.228726
 H     2.032006    -1.719859    -1.308549
 C     1.121038    -1.353353     1.942338
 H     0.239716    -1.300909     2.587394
 C     3.370275    -1.421602     0.332277
 H     4.248833    -1.439576    -0.318904
 C     2.384819    -1.185128     2.499045
 H     2.479323    -1.023647     3.576869
 C     3.536376    -1.214038     1.703870
 C     4.896756    -0.980659     2.291729
 H     5.184978     0.081045     2.204493
 H     4.927714    -1.240711     3.359565
 H     5.667761    -1.568781     1.772485
 H    -1.389768    -3.081962     1.797965
 C    -2.511954    -3.962605     0.167318
 H    -2.368284    -4.312785    -0.865991
 H    -3.336308    -3.237617     0.158946
 H    -0.398313    -4.047322     0.695166
 H    -2.826436    -4.830941     0.766418
 H     0.086698    -1.494308    -2.323267
 C     0.230678    -3.658776    -2.076342
 H    -0.390059    -4.500000    -1.736098
 H     1.194475    -3.734104    -1.552888
 H    -1.455244    -2.314674    -2.308567
 H     0.421842    -3.810477    -3.150336
 C     0.897282     1.298642    -1.843308
 H    -0.011144     1.114766    -2.425300
 C     1.982174     1.813639     0.232917
 H     1.955158     2.032290     1.301339
 C     2.134761     1.206170    -2.470137
 H     2.180747     0.963589    -3.535934
 C     3.220357     1.716689    -0.398684
 H     4.131051     1.872804     0.186641
 C     3.323242     1.413900    -1.758392
 C     4.660030     1.265261    -2.422885
 H     5.435343     1.849367    -1.906524
 H     4.986863     0.211156    -2.417629
 H     4.628919     1.588924    -3.473614
 H    -1.518569     2.838397    -1.772169
 C    -2.928738     3.598181    -0.322537
 H    -2.990579     3.875252     0.741495
 H    -3.657598     2.794549    -0.492793
 H    -0.804946     3.981585    -0.634130
 H    -3.241220     4.473635    -0.912314
 H     0.076657     1.705578     2.427138
 C    -0.093950     3.851252     2.032740
 H    -0.844241     4.571225     1.673955
 H     0.823994     4.016000     1.449122
 H    -1.563242     2.305728     2.447324
 H     0.127177     4.108838     3.080396
