  82
scf done:    -4145.510279
 C     0.708154    -2.547426    -2.676017
 H     1.160667    -2.205568    -3.612615
 H     1.391905    -3.102887    -2.026476
 C    -0.678283    -2.783028    -2.607863
 H    -1.312278    -2.611459    -3.482947
 H    -1.063699    -3.529616    -1.909447
 H     0.060633    -1.899399    -0.456147
Co    -0.203999    -1.059015    -1.651947
 C     2.816190    -1.077064    -0.224664
 O     1.788122     1.331906    -1.029655
 O     0.725228     0.118637     1.013165
 C    -2.240310     1.175435    -0.090051
 O    -3.385090    -0.973129    -1.289423
 O    -2.129892    -1.185147     0.948472
 P    -1.937127    -0.555033    -0.579068
 P     1.275617    -0.165095    -0.536515
 C    -0.269084     0.024830    -3.029468
 O    -0.232583     0.746142    -3.921783
 C     2.850283    -2.008915     0.819706
 H     1.987480    -2.111962     1.482420
 C     3.896580    -1.001636    -1.112148
 H     3.875426    -0.303721    -1.951794
 C     3.961281    -2.825809     1.004070
 H     4.005734    -3.558718     1.811513
 C     5.014041    -1.810518    -0.934841
 H     5.870708    -1.758073    -1.608747
 C     5.033238    -2.708137     0.126757
 F     6.100008    -3.482967     0.300157
 C     2.985608     1.992711    -0.975936
 C     3.809730     2.011795     0.149325
 H     3.525209     1.473866     1.053010
 C     3.348345     2.690413    -2.130088
 H     2.677242     2.652983    -2.990653
 C     5.002367     2.731596     0.105944
 H     5.644955     2.744546     0.989379
 C     4.539820     3.409222    -2.158285
 H     4.817927     3.955186    -3.062966
 C     5.374387     3.430896    -1.040571
 H     6.310254     3.993271    -1.062891
 C     1.147486     1.086749     1.879157
 C     0.767175     2.414203     1.675657
 H     0.153778     2.664606     0.809498
 C     1.921362     0.729800     2.984407
 H     2.203896    -0.314593     3.124199
 C     1.186261     3.389525     2.575413
 H     0.894165     4.429363     2.411493
 C     2.330767     1.715629     3.881425
 H     2.939172     1.438004     4.745485
 C     1.971179     3.047003     3.677002
 H     2.298472     3.817367     4.378488
 C    -2.744595     1.524132     1.168868
 H    -2.972287     0.738808     1.889934
 C    -1.935154     2.188748    -1.005969
 H    -1.531473     1.941464    -1.989131
 C    -2.944115     2.857988     1.507520
 H    -3.330043     3.147826     2.486276
 C    -2.133663     3.527619    -0.680718
 H    -1.897230     4.328712    -1.382939
 C    -2.635936     3.842851     0.576569
 F    -2.817385     5.120484     0.899448
 C    -4.594957    -0.563399    -0.784790
 C    -5.226182     0.541724    -1.355435
 H    -4.736249     1.061629    -2.180487
 C    -5.188679    -1.251517     0.273520
 H    -4.678744    -2.112625     0.707498
 C    -6.457836     0.961810    -0.860301
 H    -6.950815     1.828611    -1.306779
 C    -6.421410    -0.822246     0.761799
 H    -6.887491    -1.360616     1.590561
 C    -7.058180     0.283973     0.200589
 H    -8.023514     0.616627     0.588381
 C    -1.611875    -2.376792     1.359671
 C    -1.949331    -3.572392     0.723875
 H    -2.624267    -3.550207    -0.134085
 C    -0.757282    -2.374780     2.462500
 H    -0.513264    -1.421124     2.932493
 C    -1.407583    -4.769895     1.186636
 H    -1.664550    -5.705112     0.683633
 C    -0.229015    -3.579084     2.921224
 H     0.438768    -3.579590     3.786598
 C    -0.545074    -4.778816     2.282149
 H    -0.124007    -5.720372     2.641083
