 100
scf done:    -4182.692838
 C    -0.889515     0.529873    -3.315302
 H    -1.614491    -0.170841    -3.742220
 H    -1.281883     1.542535    -3.187395
 C     0.488867     0.320204    -3.529022
 H     0.799605    -0.528768    -4.149465
 H     1.182858     1.162755    -3.547767
 H     0.140920     1.293506    -1.365764
Co    -0.025962    -0.143984    -1.624517
 C    -1.329761     1.502628     1.037994
 C    -3.124739     0.901376    -1.132877
 C    -2.433978    -1.144717     0.714042
 C     1.589078    -1.429957     0.965242
 C     3.349197    -0.816885    -1.181674
 C     2.370877     1.323664     0.396732
 P     1.784606    -0.229355    -0.412972
 P    -1.659410     0.226290    -0.249307
 C    -0.250235    -1.843510    -2.002912
 O    -0.411669    -2.934172    -2.333971
 C    -1.607830     1.308049     2.394154
 H    -2.092208     0.387903     2.724337
 C    -0.692142     2.695055     0.665669
 H    -0.432367     2.856796    -0.383182
 C    -1.243219     2.262348     3.342864
 H    -1.454662     2.073326     4.399322
 C    -0.354731     3.654941     1.610630
 H     0.152135     4.567651     1.286729
 C    -0.610348     3.451413     2.971838
 C    -0.182093     4.466854     3.988739
 H    -0.568359     5.468640     3.743857
 H    -0.530527     4.204293     4.997543
 H     0.917282     4.544059     4.018930
 C    -3.550245     2.223111    -1.036979
 H    -3.039934     2.897220    -0.346322
 C    -3.808514     0.033202    -2.008251
 O    -3.353237    -1.233180    -2.047726
 C    -3.911114    -2.157539    -2.934873
 H    -4.971283    -2.360115    -2.701336
 H    -3.331938    -3.081988    -2.818303
 H    -3.833282    -1.815029    -3.981980
 C    -4.626296     2.693591    -1.792691
 H    -4.941611     3.735403    -1.702603
 C    -4.889569     0.495348    -2.762334
 H    -5.419454    -0.177032    -3.437811
 C    -5.292818     1.826902    -2.651747
 H    -6.137826     2.181225    -3.247240
 C    -1.800757    -2.384671     0.762261
 H    -0.829704    -2.498397     0.281088
 C    -3.689096    -1.011489     1.350154
 O    -4.257050     0.206508     1.311317
 C    -5.556730     0.394104     1.787455
 H    -6.276329    -0.272342     1.280905
 H    -5.819090     1.435904     1.563643
 H    -5.624631     0.232027     2.878039
 C    -2.374909    -3.479692     1.407314
 H    -1.848719    -4.436002     1.424065
 C    -4.275333    -2.106946     1.993115
 H    -5.245847    -2.005806     2.479613
 C    -3.615247    -3.335679     2.017109
 H    -4.084954    -4.183854     2.521962
 C     2.026010    -2.748934     0.803517
 H     2.608179    -3.024543    -0.079369
 C     0.824683    -1.127972     2.099797
 H     0.415931    -0.126423     2.233961
 C     1.718081    -3.724350     1.750117
 H     2.065992    -4.749401     1.592609
 C     0.539834    -2.099657     3.051451
 H    -0.066331    -1.829944     3.921120
 C     0.974193    -3.420403     2.894468
 C     0.611417    -4.471513     3.901382
 H     0.895680    -4.168138     4.921179
 H    -0.477530    -4.644643     3.908583
 H     1.103298    -5.429737     3.682204
 C     3.359531    -1.137398    -2.536603
 H     2.422178    -1.033508    -3.083091
 C     4.547654    -0.946376    -0.444566
 O     4.482544    -0.659231     0.865887
 C     5.629883    -0.743174     1.658745
 H     6.026256    -1.773003     1.698053
 H     5.330951    -0.437426     2.669364
 H     6.425112    -0.065671     1.301811
 C     4.521623    -1.569865    -3.176298
 H     4.503680    -1.815949    -4.239893
 C     5.717146    -1.374115    -1.081718
 H     6.646608    -1.476025    -0.520978
 C     5.697185    -1.680764    -2.442841
 H     6.618919    -2.015169    -2.925918
 C     2.548967     1.478604     1.770673
 H     2.384486     0.624870     2.426479
 C     2.674147     2.422653    -0.436604
 O     2.585968     2.210327    -1.761714
 C     2.875773     3.248803    -2.651832
 H     2.194465     4.107046    -2.516333
 H     2.735790     2.842284    -3.661285
 H     3.918089     3.597618    -2.547411
 C     2.949363     2.692201     2.328602
 H     3.069560     2.779315     3.410575
 C     3.068693     3.645970     0.116379
 H     3.290506     4.495972    -0.528928
 C     3.196706     3.778428     1.498081
 H     3.506913     4.738657     1.918031
