  90
scf done:    -4001.866605
 C    -0.530516     0.458708    -3.528254
 H    -0.974988    -0.364664    -4.097880
 H    -1.136634     1.369420    -3.524021
 C     0.872781     0.535439    -3.404441
 H     1.506634    -0.228282    -3.866801
 H     1.361077     1.511933    -3.326840
 H    -0.090234     1.389769    -1.375363
Co     0.036076    -0.058226    -1.660910
 C    -1.588675     1.094586     1.083209
 C    -3.165567     0.871092    -1.299004
 C    -2.496955    -1.441224     0.209662
 C     1.674127    -1.082106     1.089627
 C     3.370609    -0.584157    -1.147727
 C     2.313321     1.616418     0.314863
 P     1.794310     0.003311    -0.392319
 P    -1.734752     0.093169    -0.457029
 C    -0.041808    -1.778244    -1.985045
 O    -0.142216    -2.899534    -2.222263
 C    -2.123430     0.672406     2.307141
 H    -2.689353    -0.259110     2.362849
 C    -0.869018     2.296049     1.048549
 H    -0.442078     2.635202     0.104113
 C    -1.919924     1.412432     3.470026
 H    -2.322657     1.086983     4.431067
 C    -0.656990     3.047187     2.199667
 H    -0.073487     3.969254     2.176415
 C    -1.179837     2.586982     3.402662
 F    -0.969658     3.288117     4.514946
 C    -3.619135     0.291373    -2.492288
 H    -3.113634    -0.594118    -2.885013
 C    -3.822983     2.003778    -0.816482
 H    -3.496595     2.468889     0.116076
 C    -4.704078     0.826992    -3.172958
 H    -5.045284     0.352698    -4.097645
 C    -4.903574     2.545919    -1.513484
 H    -5.402987     3.435175    -1.118594
 C    -5.364053     1.971029    -2.700135
 C    -6.514376     2.561234    -3.461531
 H    -7.240667     1.787659    -3.754632
 H    -7.043931     3.320539    -2.869178
 H    -6.166512     3.044755    -4.389282
 C    -3.879945    -1.630239     0.305267
 H    -4.561930    -0.865118    -0.072395
 C    -1.651528    -2.438469     0.710538
 H    -0.569373    -2.313940     0.647525
 C    -4.396901    -2.785536     0.887878
 H    -5.481251    -2.914111     0.951117
 C    -2.173467    -3.581596     1.304536
 H    -1.488426    -4.335235     1.703188
 C    -3.556431    -3.780164     1.400149
 C    -4.113954    -5.034263     2.005884
 H    -4.120479    -5.855127     1.269323
 H    -3.508940    -5.371185     2.860609
 H    -5.148614    -4.892715     2.349408
 C     2.078777    -2.421407     1.015805
 H     2.616797    -2.780959     0.135939
 C     0.990157    -0.653744     2.236944
 H     0.656551     0.381154     2.321940
 C     1.795238    -3.315457     2.045805
 H     2.101318    -4.361823     1.992522
 C     0.707933    -1.534176     3.276444
 H     0.165544    -1.206110     4.164760
 C     1.105174    -2.860409     3.162165
 F     0.814394    -3.716472     4.141322
 C     3.333154    -1.578442    -2.132209
 H     2.373696    -1.977495    -2.463714
 C     4.620490    -0.088578    -0.758176
 H     4.685649     0.695559    -0.001508
 C     4.507226    -2.076544    -2.690234
 H     4.447361    -2.860994    -3.449845
 C     5.790278    -0.580317    -1.329552
 H     6.753561    -0.174124    -1.007891
 C     5.758413    -1.583415    -2.304975
 C     7.020518    -2.086629    -2.940832
 H     7.285734    -1.476528    -3.820613
 H     7.869963    -2.039895    -2.243976
 H     6.912966    -3.125461    -3.284707
 C     2.922967     1.751280     1.567277
 H     3.105411     0.869567     2.185014
 C     2.128171     2.768275    -0.457598
 H     1.653996     2.678451    -1.437706
 C     3.298334     3.004683     2.044450
 H     3.761794     3.084277     3.031812
 C     2.515849     4.016675     0.017470
 H     2.359270     4.900656    -0.607156
 C     3.094983     4.161727     1.284491
 C     3.460985     5.514704     1.819363
 H     3.724838     6.210861     1.010223
 H     2.616112     5.960182     2.371298
 H     4.309422     5.457307     2.516358
