  78
scf done:    -4413.967958
 C     1.376439     0.270677     3.176647
 H     1.463514    -0.674685     3.719460
 H     2.337973     0.679073     2.849141
 C     0.302940     1.143861     3.449336
 H    -0.438525     0.867172     4.205956
 H     0.449965     2.222211     3.351170
 H     0.806823     1.334650     1.096061
Co     0.027799     0.217122     1.665793
 C     2.871225    -0.299400    -0.066677
 O     1.885727    -2.415103     1.058812
 O     0.580993    -1.482646    -0.941397
 C    -2.762159     0.365809    -0.252375
 O    -1.978250     2.636067     0.713099
 O    -0.465237     1.567665    -1.057759
 P    -1.255231     1.207325     0.344178
 P     1.275557    -0.995590     0.477179
 C    -1.152081    -0.926069     2.291098
 O    -1.964883    -1.636022     2.683449
 C     2.852342     0.958287    -0.684516
 H     1.898551     1.478592    -0.813325
 C     4.088142    -0.966461     0.093408
 H     4.101045    -1.941619     0.582560
 C     4.027962     1.534226    -1.151199
 H     4.019892     2.509551    -1.640639
 C     5.274018    -0.393372    -0.362000
 H     6.229378    -0.905595    -0.236495
 C     5.234930     0.852219    -0.984851
Cl     6.704074     1.568643    -1.556864
 C     1.028467    -3.451139     1.546127
 H    -0.003531    -3.252133     1.202915
 C     1.055219    -3.477450     3.060774
 H     0.678501    -2.536493     3.479157
 H     2.085518    -3.629019     3.417182
 H     0.427272    -4.296122     3.441985
 C     1.507432    -4.758428     0.945556
 H     1.484295    -4.726121    -0.152167
 H     2.542211    -4.962059     1.261262
 H     0.873689    -5.592842     1.280651
 C     1.227662    -2.295939    -1.926408
 H     2.088473    -2.801691    -1.453643
 C     1.717373    -1.436908    -3.075596
 H     2.459498    -0.702209    -2.737454
 H     0.873350    -0.895379    -3.527781
 H     2.182268    -2.065275    -3.850097
 C     0.217273    -3.334280    -2.374108
 H    -0.146683    -3.923487    -1.520089
 H    -0.648338    -2.841963    -2.844121
 H     0.662731    -4.022875    -3.107561
 C    -4.026663     0.960437    -0.247246
 H    -4.135359     1.978861     0.128815
 C    -2.623844    -0.948405    -0.719008
 H    -1.633160    -1.411909    -0.731214
 C    -5.138406     0.263206    -0.715116
 H    -6.129216     0.720559    -0.714077
 C    -3.725500    -1.651304    -1.192235
 H    -3.623181    -2.672737    -1.562664
 C    -4.979331    -1.038035    -1.187603
Cl    -6.356992    -1.909637    -1.772114
 C    -1.371520     3.612205     1.563119
 H    -0.317458     3.327611     1.722604
 C    -2.100559     3.607483     2.890640
 H    -2.062156     2.605176     3.338424
 H    -3.156197     3.885280     2.746388
 H    -1.644704     4.322055     3.592382
 C    -1.431872     4.950304     0.856110
 H    -0.887689     4.915219    -0.098098
 H    -2.476726     5.227301     0.647279
 H    -0.983555     5.737140     1.480865
 C    -1.070505     2.278599    -2.142144
 H    -1.970943     2.795260    -1.765812
 C    -1.460035     1.316608    -3.247558
 H    -2.202235     0.586580    -2.899306
 H    -0.573420     0.768606    -3.599541
 H    -1.889485     1.866426    -4.098520
 C    -0.064312     3.313637    -2.606049
 H     0.220540     3.977897    -1.777704
 H     0.846725     2.818607    -2.977278
 H    -0.480137     3.927063    -3.419226
