 102
scf done:    -4579.766225
 C    -0.581426     0.465877    -3.713512
 H    -1.112832    -0.297167    -4.293213
 H    -1.092925     1.434187    -3.702242
 C     0.835162     0.430863    -3.654501
 H     1.375165    -0.359598    -4.188974
 H     1.392356     1.370768    -3.587459
 H     0.059439     1.313835    -1.598825
Co     0.036339    -0.128068    -1.895270
 C    -1.381454     1.500050     0.630813
 C    -3.147664     0.869155    -1.539859
 C    -2.325280    -1.218080     0.495753
 C     1.352543    -1.273422     0.916532
 C     3.242824    -1.096730    -1.234525
 C     2.298508     1.378923     0.243347
 P     1.743303    -0.214386    -0.539695
 P    -1.699426     0.160825    -0.598512
 C     0.035534    -1.821475    -2.329128
 O     0.109438    -2.912120    -2.697252
 C    -1.237792     1.288634     2.004934
 H    -1.406763     0.301356     2.433305
 C    -1.168670     2.800953     0.146102
 H    -1.266256     3.002532    -0.923202
 C    -0.837963     2.315355     2.861766
 H    -0.699061     2.128876     3.928136
 C    -0.799110     3.841660     0.987009
 H    -0.634851     4.846376     0.594767
 C    -0.604416     3.584487     2.344899
Cl    -0.034203     4.849617     3.381706
 H    -2.620472     1.583310    -2.198031
 C    -4.224168     1.656667    -0.791871
 H    -3.772281     2.404761    -0.123383
 H    -4.812674     0.982382    -0.151370
 C    -5.161301     2.336200    -1.788184
 H    -5.944853     2.893353    -1.249152
 H    -4.590824     3.084992    -2.367493
 C    -5.788899     1.329415    -2.746730
 H    -6.429020     1.844512    -3.481321
 H    -6.453725     0.656261    -2.175050
 C    -4.728361     0.494509    -3.456708
 H    -4.137527     1.142573    -4.128750
 H    -5.202583    -0.266430    -4.097642
 C    -3.784706    -0.172647    -2.461224
 H    -4.356776    -0.895210    -1.853228
 H    -3.001709    -0.742532    -2.984039
 H    -1.489674    -1.332352     1.212473
 C    -2.448832    -2.566777    -0.218450
 H    -1.518470    -2.804301    -0.748743
 H    -3.237894    -2.512845    -0.986784
 C    -2.777027    -3.686956     0.766018
 H    -2.899693    -4.636211     0.219599
 H    -1.920084    -3.826669     1.445919
 C    -4.014447    -3.385846     1.601579
 H    -4.182398    -4.188146     2.338040
 H    -4.906202    -3.368714     0.948635
 C    -3.883741    -2.037406     2.298210
 H    -3.057590    -2.083660     3.031597
 H    -4.797272    -1.804741     2.869319
 C    -3.604200    -0.930365     1.286178
 H    -4.451507    -0.880576     0.582031
 H    -3.559331     0.049672     1.783934
 C     1.121453    -2.641149     0.691214
 H     1.268060    -3.065101    -0.304516
 C     1.150107    -0.785428     2.211626
 H     1.326163     0.265230     2.440271
 C     0.682426    -3.482429     1.704556
 H     0.504377    -4.541412     1.511969
 C     0.686281    -1.611336     3.236019
 H     0.507688    -1.211968     4.236018
 C     0.438609    -2.953942     2.972989
Cl    -0.211408    -3.972592     4.214281
 H     2.764185    -1.916268    -1.803284
 C     4.229376    -1.738444    -0.255822
 H     3.703362    -2.359586     0.483748
 H     4.753834    -0.955658     0.314274
 C     5.256361    -2.579998    -1.010185
 H     5.970267    -3.027097    -0.299380
 H     4.738685    -3.423627    -1.501954
 C     5.994476    -1.760429    -2.062738
 H     6.698809    -2.396687    -2.622814
 H     6.606325    -0.991508    -1.556513
 C     5.021693    -1.074154    -3.014618
 H     4.493198    -1.837260    -3.614014
 H     5.566500    -0.438998    -3.731861
 C     3.992835    -0.240218    -2.257505
 H     4.514315     0.578070    -1.731506
 H     3.286165     0.229110    -2.955199
 H     1.421587     1.631117     0.870269
 C     2.443135     2.532573    -0.754244
 H     1.539643     2.589520    -1.379841
 H     3.285614     2.332939    -1.437020
 C     2.683087     3.854223    -0.030143
 H     2.818211     4.663733    -0.765914
 H     1.783566     4.109425     0.554805
 C     3.876891     3.786322     0.914653
 H     3.987494     4.737009     1.460806
 H     4.803870     3.653555     0.327313
 C     3.736407     2.623902     1.889774
 H     2.871638     2.807540     2.553834
 H     4.622417     2.555430     2.541737
 C     3.532574     1.307168     1.145481
 H     4.421183     1.114788     0.520926
 H     3.466757     0.467680     1.853577
