  90
scf done:    -4001.788305
 C     0.779720     0.790176     3.509303
 H     1.250668     0.046703     4.161170
 H     1.400462     1.676142     3.343097
 C    -0.629468     0.892444     3.470376
 H    -1.240525     0.226312     4.088727
 H    -1.107583     1.855669     3.267558
 H     0.180931     1.410460     1.329344
Co     0.060479     0.023984     1.788546
 C     1.944353     1.273572    -0.673264
 C     3.445784    -0.214305     1.249693
 C     1.816720    -1.609256    -0.623704
 C    -1.850971    -1.346840    -0.631228
 C    -3.294936     0.195570     1.303901
 C    -1.746887     1.457990    -0.757828
 P    -1.658052     0.098025     0.482727
 P     1.776547    -0.141142     0.487897
 C    -0.094787    -1.613078     2.396497
 O    -0.213907    -2.667807     2.845240
 C     1.764944     1.170364    -2.053651
 H     1.629238     0.189591    -2.513259
 C     2.162371     2.542693    -0.115832
 H     2.299344     2.641428     0.964106
 C     1.755686     2.307250    -2.863003
 H     1.583438     2.241767    -3.938464
 C     2.196620     3.678614    -0.912662
 H     2.372520     4.669512    -0.490755
 C     1.967522     3.545343    -2.278457
 F     1.938997     4.642909    -3.037890
 C     3.590854    -0.957338     2.425461
 H     2.714175    -1.422464     2.881147
 C     4.570462     0.391503     0.679159
 H     4.461324     0.978392    -0.236915
 C     4.848571    -1.100329     3.004299
 H     4.961725    -1.687177     3.919110
 C     5.838289     0.267230     1.258256
 C     7.030456     0.951454     0.653978
 H     7.926154     0.313957     0.697269
 H     6.851179     1.220667    -0.396598
 H     7.267463     1.881690     1.196685
 C     5.961382    -0.492281     2.427402
 H     6.944186    -0.605404     2.893852
 C     2.904123    -2.041541    -1.291128
 H     3.858686    -1.518966    -1.179473
 C     0.522124    -2.348558    -0.727490
 H     0.223907    -2.693824     0.273376
 C     2.861078    -3.210676    -2.170414
 H     3.792994    -3.525648    -2.647043
 C     0.441542    -3.469465    -1.787091
 C    -0.615072    -4.539447    -1.418846
 H    -0.792359    -4.662875    -0.339815
 H    -3.414944    -4.234955    -0.989530
 H    -0.428036    -5.522075    -1.874379
 C     1.720970    -3.884162    -2.408445
 H     1.715659    -4.748887    -3.079563
 C    -2.904723    -2.175395    -0.664274
 H    -3.770667    -1.968441    -0.027327
 C    -0.626823    -1.589254    -1.452022
 H    -0.263778    -0.641282    -1.875351
 C    -3.000067    -3.380186    -1.551075
 H    -3.727332    -3.176817    -2.357690
 C    -0.692855    -2.684071    -2.539140
 H    -0.639321    -2.370831    -3.590398
 C    -1.700974    -3.789394    -2.214374
 F    -2.012593    -4.510754    -3.355151
 C    -3.545935    -0.670172     2.376830
 H    -2.772693    -1.366889     2.707680
 C    -4.290364     1.087994     0.899601
 H    -4.098901     1.765617     0.063800
 C    -4.784013    -0.648268     3.009866
 H    -4.982510    -1.333001     3.838011
 C    -5.533605     1.135506     1.543334
 C    -6.571659     2.133643     1.118767
 H    -6.405696     3.105961     1.612111
 H    -6.538756     2.311026     0.033800
 H    -7.585553     1.800391     1.382976
 C    -5.768570     0.250094     2.599192
 H    -6.735734     0.265800     3.109427
 C    -2.300196     1.250751    -2.026110
 H    -2.689300     0.266367    -2.296556
 C    -1.280959     2.733621    -0.422882
 H    -0.838344     2.890642     0.564479
 C    -2.359048     2.299988    -2.941750
 H    -2.779312     2.129087    -3.936055
 C    -1.354325     3.801278    -1.321238
 C    -0.869990     5.171251    -0.946011
 H    -1.698413     5.897858    -0.947330
 H    -0.418589     5.176303     0.055409
 H    -0.117500     5.532940    -1.663463
 C    -1.888900     3.562040    -2.593780
 H    -1.935612     4.379346    -3.319123
