  50
scf done:    -3798.921379
 C     4.497616     0.003084    -0.671461
 H     4.651434     0.138928    -1.748127
 H     5.011840     0.750984    -0.058382
 C     4.299667    -1.303213    -0.155991
 H     4.300547    -2.158415    -0.840809
 H     4.663095    -1.545267     0.848018
 H     3.012273     0.183603     1.199431
Co     2.580471    -0.269356    -0.143580
 C     0.016696     1.916196    -0.070771
 C     2.490355     2.913304     1.002768
 C     2.153834     2.644299    -1.794790
 C    -0.475670    -1.607812     0.617204
 C     1.766577    -3.181007     1.357846
 C     1.135787    -0.852807     2.850321
 P     1.284487    -1.425739     1.117547
 P     1.836664     1.733088    -0.231938
 C     2.004403    -0.776502    -1.713926
 O     1.613899    -1.074016    -2.757302
 C    -0.797038     1.337448    -1.057431
 H    -0.344375     0.819292    -1.906805
 C    -0.602427     2.527728     1.023955
 H    -0.004170     2.987245     1.813538
 C    -2.181814     1.385615    -0.970142
 H    -2.809727     0.925244    -1.734212
 C    -1.992398     2.567156     1.135658
 H    -2.471743     3.038968     1.995087
 C    -2.773276     1.997522     0.135409
Cl    -4.498948     2.005553     0.284025
 H     2.287355     2.542819     2.016959
 H     3.582259     2.941329     0.877158
 H     2.079540     3.926764     0.879458
 H     1.745077     3.665466    -1.769026
 H     3.241469     2.679796    -1.955126
 H     1.708547     2.094632    -2.636103
 C    -0.765713    -2.219503    -0.611036
 H     0.041827    -2.608443    -1.235709
 C    -1.541190    -1.108605     1.373906
 H    -1.360521    -0.613378     2.328848
 C    -2.071540    -2.324830    -1.075069
 H    -2.288099    -2.794674    -2.035828
 C    -2.855144    -1.201799     0.921053
 H    -3.678103    -0.781961     1.500930
 C    -3.112290    -1.803045    -0.306932
Cl    -4.735093    -1.867374    -0.908189
 H     1.770899    -3.688696     0.383154
 H     2.791638    -3.208442     1.754661
 H     1.082210    -3.705630     2.041441
 H     0.776389     0.186423     2.862074
 H     0.465303    -1.485796     3.450509
 H     2.143949    -0.864728     3.287152
