  96
scf done:    -4278.818242
 C     0.065248     3.044081     2.541202
 H     0.508788     2.981583     3.541215
 H     0.603764     3.711635     1.860671
 C    -1.332484     2.883132     2.384146
 H    -1.956964     2.690557     3.263696
 H    -1.847385     3.417485     1.579266
 H    -0.246246     2.008016     0.463898
Co    -0.349120     1.256762     1.720591
 C     1.644009     0.692350    -0.890139
 C     2.957807     1.514804     1.598128
 C     1.980318    -1.233340     1.333828
 C    -1.826704    -1.530171     0.399454
 C    -3.607456     0.383063     1.501261
 C    -2.324939     0.901143    -1.056640
 P    -1.934697     0.291677     0.655416
 P     1.508461     0.541090     0.931173
 C    -0.336779     0.347915     3.216288
 O    -0.290047    -0.254999     4.198294
 C     1.081871    -0.282243    -1.722129
 H     0.656143    -1.191929    -1.299144
 C     2.139487     1.863488    -1.476332
 H     2.525235     2.667044    -0.845080
 C     1.057889    -0.096144    -3.102972
 H     0.627256    -0.871298    -3.741745
 C     2.119407     2.067611    -2.859227
 C     2.627196     3.347471    -3.457636
 H     3.169170     3.953750    -2.718069
 H     3.304705     3.154963    -4.303414
 H     1.794983     3.958648    -3.844204
 C     1.578314     1.062919    -3.670666
 H     1.555435     1.198005    -4.755408
 H     2.811067     2.544864     1.241873
 H     2.745848     1.551256     2.677102
 C     4.347597     1.017842     1.350133
 C     4.975056     0.188561     2.291307
 H     4.460814    -0.046894     3.227072
 C     5.058052     1.332019     0.182571
 H     4.607114     1.979726    -0.569640
 C     6.244553    -0.338905     2.070919
 H     6.729742    -0.988153     2.801644
 C     6.330677     0.819155    -0.052950
 H     6.883389     1.061067    -0.962454
 C     6.907063    -0.020289     0.892690
 F     8.121569    -0.518215     0.669853
 H     2.714409    -1.150803     2.150914
 H     1.072374    -1.667944     1.771802
 C     2.488595    -2.146293     0.256878
 C     1.700063    -3.228607    -0.152215
 H     0.736496    -3.402414     0.330549
 C     3.716215    -1.944883    -0.385520
 H     4.352006    -1.109481    -0.094082
 C     2.105225    -4.077178    -1.179363
 H     1.487450    -4.917856    -1.501124
 C     4.138977    -2.785271    -1.410553
 H     5.093535    -2.628125    -1.915894
 C     3.323712    -3.840335    -1.801438
 F     3.720094    -4.641693    -2.791344
 C    -1.604379    -2.328838     1.531909
 H    -1.456879    -1.865668     2.510215
 C    -2.000572    -2.158740    -0.835816
 H    -2.182182    -1.564332    -1.733388
 C    -1.598331    -3.715587     1.424025
 H    -1.443975    -4.328364     2.315489
 C    -1.962526    -3.553827    -0.967486
 C    -2.098170    -4.190100    -2.319468
 H    -2.841555    -3.665998    -2.938030
 H    -1.138344    -4.156610    -2.862147
 H    -2.397948    -5.244658    -2.242697
 C    -1.776842    -4.325708     0.182341
 H    -1.762950    -5.416095     0.103876
 H    -3.402599     0.131107     2.552504
 H    -3.879306     1.449524     1.487651
 C    -4.678067    -0.495284     0.931983
 C    -5.506504    -0.075516    -0.117347
 H    -5.431978     0.945826    -0.495013
 C    -4.845917    -1.804719     1.406420
 H    -4.230230    -2.156875     2.235866
 C    -6.444854    -0.928562    -0.694624
 H    -7.091171    -0.599052    -1.510012
 C    -5.774555    -2.672524     0.842675
 H    -5.898806    -3.692515     1.210386
 C    -6.559924    -2.224920    -0.212248
 F    -7.449045    -3.051396    -0.762776
 H    -1.518853     0.508674    -1.694221
 H    -3.270716     0.445476    -1.387917
 C    -2.352446     2.396038    -1.168007
 C    -3.477716     3.154189    -0.824522
 H    -4.393490     2.658253    -0.498716
 C    -1.205921     3.080927    -1.592069
 H    -0.319828     2.512747    -1.878358
 C    -3.463630     4.546348    -0.883625
 H    -4.339725     5.139039    -0.615192
 C    -1.171263     4.470079    -1.655866
 H    -0.277144     5.004042    -1.983035
 C    -2.303281     5.189163    -1.293233
 F    -2.278810     6.520395    -1.350648
