  84
scf done:    -3573.596886
 C     1.105948    -1.105390    -2.948197
 H     1.534307    -0.315414    -3.571826
 H     1.851423    -1.799226    -2.546226
 C    -0.211302    -1.553682    -3.184670
 H    -0.796903    -1.104730    -3.993731
 H    -0.466174    -2.597459    -2.985288
 H     0.169306    -1.681092    -0.804944
Co    -0.137870    -0.418950    -1.506546
 C     2.694114    -0.837198     0.274297
 O     2.541452     1.404422    -1.029825
 O     0.989079     1.162270     0.993439
 C    -2.830288     0.643748     0.260337
 O    -2.888954    -1.853876    -0.436855
 O    -1.125563    -1.202143     1.302478
 P    -1.713998    -0.736251    -0.166040
 P     1.460682     0.345735    -0.364530
 C    -0.800256     1.010472    -2.284123
 O    -1.282713     1.926601    -2.781848
 C     2.215852    -1.950440     0.979002
 H     1.138530    -2.081455     1.113483
 C     4.067745    -0.658598     0.108255
 H     4.421752     0.212028    -0.447840
 C     3.119173    -2.857123     1.521277
 H     2.752673    -3.720331     2.082559
 C     4.986090    -1.573987     0.640110
 C     6.459678    -1.384559     0.423000
 H     6.750991    -1.696846    -0.593639
 H     6.749109    -0.328574     0.531402
 H     7.053052    -1.977548     1.133445
 C     4.492204    -2.670209     1.352747
 H     5.193975    -3.391720     1.780847
 C     2.110757     2.626188    -1.631612
 H     1.064451     2.824256    -1.334070
 C     2.187314     2.514210    -3.140927
 H     1.524367     1.723332    -3.511823
 H     3.217121     2.277183    -3.449168
 H     1.887534     3.461253    -3.613466
 C     2.994915     3.736915    -1.098138
 H     2.930160     3.807648    -0.003901
 H     4.045034     3.546036    -1.368028
 H     2.699118     4.706326    -1.526164
 C     1.888933     1.752559     1.935811
 H     2.869250     1.893028     1.446034
 C     2.056979     0.851598     3.144135
 H     2.498005    -0.113896     2.865138
 H     1.079854     0.663994     3.613484
 H     2.713369     1.330096     3.886694
 C     1.312480     3.105219     2.305836
 H     1.174618     3.732274     1.413243
 H     0.330098     2.977720     2.786098
 H     1.975420     3.635462     3.005869
 C    -4.222804     0.527321     0.273550
 H    -4.683482    -0.427443     0.016570
 C    -2.231842     1.870965     0.567499
 H    -1.139910     1.944237     0.560052
 C    -4.999068     1.635461     0.606962
 H    -6.088910     1.553204     0.615099
 C    -3.001091     2.987245     0.905899
 C    -2.342053     4.288853     1.260887
 H    -2.024089     4.296683     2.316902
 H    -1.442739     4.459840     0.651353
 H    -3.022732     5.139912     1.115930
 C    -4.394849     2.850986     0.920133
 H    -5.015765     3.715478     1.172150
 C    -2.641866    -3.076653    -1.131741
 H    -1.553094    -3.180249    -1.278178
 C    -3.325023    -3.002727    -2.481662
 H    -2.950292    -2.138611    -3.047028
 H    -4.412579    -2.889363    -2.352143
 H    -3.136401    -3.914132    -3.068878
 C    -3.146299    -4.217635    -0.272208
 H    -2.621878    -4.241918     0.693297
 H    -4.223787    -4.103617    -0.076725
 H    -2.985892    -5.182040    -0.777026
 C    -1.955318    -1.502659     2.426778
 H    -2.975184    -1.723651     2.064811
 C    -1.999183    -0.324004     3.380720
 H    -2.440256     0.560196     2.902619
 H    -0.980567    -0.068499     3.708448
 H    -2.599305    -0.573721     4.268771
 C    -1.378766    -2.745946     3.075895
 H    -1.337642    -3.577000     2.357380
 H    -0.354366    -2.548514     3.428533
 H    -1.988800    -3.057524     3.936955
