  80
scf done:    -4193.494528
 C    -0.318825    -3.139088    -1.565181
 H    -0.883622    -3.883496    -0.994286
 H    -0.815252    -2.816154    -2.484624
 C     1.084429    -3.082277    -1.466657
 H     1.610649    -3.804008    -0.832789
 H     1.679525    -2.708807    -2.305339
 H     0.287311    -0.801373    -1.721950
Co     0.237243    -1.553222    -0.437395
 O    -1.992750     0.550692    -1.321391
 C    -3.085574    -1.775587    -0.469801
 C    -2.103373     0.138757     1.390903
 O     2.184462     0.359350     1.344687
 C     3.297945    -0.263148    -1.056564
 C     1.211362     1.652623    -0.742453
 P     1.679468    -0.042336    -0.237454
 P    -1.670740    -0.655341    -0.194239
 C     0.312961    -2.366361     1.109913
 O     0.365699    -2.891222     2.131095
 C    -2.851591     1.595918    -1.113895
 C    -2.414042     2.713322    -0.399444
 H    -1.403723     2.717872     0.011218
 C    -4.142576     1.559577    -1.641941
 H    -4.471367     0.679722    -2.196091
 C    -3.272169     3.792356    -0.213186
 H    -2.923999     4.663847     0.346116
 C    -4.995212     2.646262    -1.449431
 H    -6.005504     2.616233    -1.864653
 C    -4.566181     3.763009    -0.734147
 H    -5.238004     4.611201    -0.585517
 C    -3.557696    -2.596906     0.561621
 H    -3.157643    -2.489337     1.573315
 C    -3.594842    -1.948303    -1.761927
 H    -3.210331    -1.330689    -2.576809
 C    -4.538127    -3.553870     0.316815
 H    -4.921512    -4.197069     1.110895
 C    -4.578955    -2.898210    -2.019359
 H    -4.991093    -3.041016    -3.019935
 C    -5.039610    -3.688492    -0.972883
 F    -5.980297    -4.598518    -1.211674
 C    -3.428423     0.450918     1.733499
 H    -4.246913     0.159990     1.071785
 C    -1.069473     0.530879     2.249812
 H    -0.030517     0.302137     2.002228
 C    -3.716461     1.141718     2.903492
 H    -4.740132     1.398525     3.180782
 C    -1.344726     1.223352     3.425529
 H    -0.548851     1.532538     4.105182
 C    -2.666001     1.521517     3.733614
 F    -2.937082     2.185261     4.852525
 C     3.361554    -0.056698     1.899372
 C     4.527240     0.685371     1.694981
 H     4.485081     1.582559     1.075176
 C     3.389602    -1.208787     2.686512
 H     2.468251    -1.770998     2.844021
 C     5.724005     0.262068     2.266085
 H     6.635119     0.841207     2.097913
 C     4.592682    -1.622210     3.256553
 H     4.612305    -2.524989     3.871842
 C     5.762825    -0.894541     3.045108
 H     6.703847    -1.225611     3.489775
 C     3.949487     0.756937    -1.758763
 H     3.463386     1.725617    -1.892020
 C     3.943972    -1.495794    -0.891053
 H     3.440357    -2.295171    -0.344269
 C     5.221791     0.554538    -2.286445
 H     5.742880     1.335978    -2.842398
 C     5.221378    -1.705041    -1.395901
 H     5.743271    -2.653937    -1.262152
 C     5.842907    -0.673112    -2.090440
 F     7.062487    -0.867002    -2.583035
 C     1.425335     2.751207     0.098447
 H     1.856535     2.590089     1.087360
 C     0.645086     1.866943    -2.006580
 H     0.443545     1.016782    -2.661150
 C     1.087486     4.039531    -0.312396
 H     1.240886     4.904573     0.335300
 C     0.317775     3.148416    -2.433363
 H    -0.130230     3.327909    -3.411861
 C     0.541764     4.220866    -1.576711
 F     0.215294     5.447094    -1.973321
