 106
scf done:    -4109.912820
 C     1.206261     1.004919    -2.785544
 H     1.826277     1.904567    -2.854491
 H     1.731749     0.077744    -3.033715
 C    -0.186558     1.091942    -2.973189
 H    -0.643273     2.060390    -3.203834
 H    -0.745277     0.230724    -3.351269
 H     0.163765    -0.615724    -1.230466
Co     0.241353     0.845344    -1.006172
 C     2.876461    -1.150657    -0.900566
 O     2.984721     0.819367     0.843573
 O     1.304339    -0.976861     1.341832
 C    -1.816839    -0.403372     1.390086
 O    -2.889066     1.341450    -0.183012
 O    -2.319213    -0.858139    -1.317711
 P    -1.646040     0.256505    -0.318841
 P     1.794653    -0.034027     0.084631
 C     0.234920     2.516701    -0.513810
 O     0.182919     3.620790    -0.180825
 C     2.366224    -2.419649    -1.246047
 O     1.162039    -2.727491    -0.733751
 C     0.384483    -3.740227    -1.307723
 H    -0.630882    -3.587608    -0.921451
 H     0.365356    -3.657908    -2.407480
 H     0.744431    -4.745285    -1.024982
 C     4.078346    -0.739841    -1.515380
 O     4.476136     0.527567    -1.313943
 C     5.641887     0.996569    -1.926695
 H     5.746051     2.047202    -1.627037
 H     5.579024     0.943905    -3.027831
 H     6.535458     0.440943    -1.592495
 C     4.794054    -1.618158    -2.343318
 H     5.734090    -1.308457    -2.796983
 C     3.069463    -3.293822    -2.082537
 H     2.669148    -4.279952    -2.315681
 C     4.288050    -2.884669    -2.608308
 H     4.851089    -3.561990    -3.254990
 C     2.664947     1.874785     1.722261
 H     1.647428     2.250229     1.521185
 H     2.669296     1.493206     2.760493
 C     3.688524     2.978595     1.557477
 H     3.525866     3.734031     2.346657
 H     4.687135     2.543925     1.740185
 C     3.654625     3.628808     0.181410
 H     2.697186     4.159666     0.053974
 H     3.659644     2.826040    -0.573656
 C     4.811011     4.585300    -0.057422
 H     4.815494     5.408050     0.676344
 H     5.782525     4.070358     0.029650
 H     4.762553     5.038436    -1.059640
 C     2.261401    -1.628617     2.157506
 H     3.010134    -2.141018     1.525094
 H     2.807578    -0.879887     2.756412
 C     1.571811    -2.622021     3.063973
 H     2.321035    -2.984468     3.790653
 H     0.797108    -2.092329     3.644703
 C     0.949228    -3.803150     2.335948
 H     1.713073    -4.274058     1.692369
 H     0.179718    -3.418726     1.649562
 C     0.364543    -4.839835     3.280736
 H     1.138348    -5.262649     3.942140
 H    -0.408841    -4.397448     3.928750
 H    -0.093968    -5.680575     2.735995
 C    -1.520093     0.506315     2.428400
 O    -1.174506     1.747405     2.041032
 C    -0.826507     2.711566     2.994247
 H    -0.543410     3.608081     2.429200
 H    -1.675009     2.953770     3.657434
 H     0.030111     2.385029     3.608798
 C    -2.107361    -1.731218     1.749364
 O    -2.291198    -2.628941     0.756638
 C    -2.747374    -3.915525     1.068783
 H    -2.890434    -4.434675     0.111777
 H    -3.710737    -3.888225     1.606980
 H    -2.015611    -4.479439     1.670871
 C    -2.193359    -2.108236     3.097483
 H    -2.447904    -3.130133     3.372167
 C    -1.582127     0.130759     3.773855
 H    -1.365489     0.846737     4.565090
 C    -1.933036    -1.175415     4.091669
 H    -1.996387    -1.476900     5.139966
 C    -3.083314     2.350393    -1.155517
 H    -2.110807     2.770517    -1.460951
 H    -3.547037     1.916040    -2.059864
 C    -3.971018     3.426895    -0.571138
 H    -4.174409     4.169503    -1.362926
 H    -4.945319     2.979470    -0.305801
 C    -3.368131     4.106153     0.649602
 H    -2.397900     4.551809     0.369739
 H    -3.135552     3.325459     1.390089
 C    -4.273843     5.162492     1.259192
 H    -4.499998     5.966282     0.539465
 H    -5.235836     4.729086     1.578191
 H    -3.813233     5.631178     2.142597
 C    -3.700241    -1.160893    -1.357388
 H    -3.842657    -2.178184    -0.959560
 H    -4.265955    -0.468920    -0.711680
 C    -4.195735    -1.078574    -2.786259
 H    -4.014383    -0.059915    -3.170179
 H    -3.584055    -1.752176    -3.410993
 C    -5.669641    -1.430895    -2.920891
 H    -6.265317    -0.754766    -2.282010
 H    -5.840416    -2.445992    -2.519523
 C    -6.175908    -1.357215    -4.352400
 H    -6.050540    -0.344256    -4.767274
 H    -5.622473    -2.049301    -5.007161
 H    -7.243600    -1.615263    -4.420617
