  70
scf done:    -3266.054931
 C     1.464338    -3.949903    -0.826163
 H     1.625974    -4.662632    -0.009756
 H     0.639993    -4.224521    -1.491876
 C     2.566448    -3.226887    -1.347195
 H     3.563259    -3.395635    -0.924538
 H     2.579629    -2.948824    -2.405643
 H     0.614865    -1.807662    -1.493021
Co     1.380566    -2.032322    -0.241986
 O    -1.242754    -0.370416    -0.306849
 C    -1.807946    -3.085322    -0.071072
 C    -0.992503    -1.453212     2.172268
 O     1.440820     0.908675     0.740472
 C     3.785241     0.407953    -0.503774
 C     1.387894     0.809691    -2.068340
 P     2.000206    -0.029106    -0.551278
 P    -0.607325    -1.771064     0.403438
 C     2.266550    -2.230736     1.256954
 O     2.885280    -2.342213     2.220250
 C    -2.554894    -0.021534    -0.400490
 C    -3.184249     0.697421     0.617151
 H    -2.620232     0.963827     1.512623
 C    -3.263286    -0.325494    -1.566722
 H    -2.751871    -0.865300    -2.366213
 C    -4.519861     1.071393     0.477975
 H    -5.002924     1.628583     1.285478
 C    -4.594861     0.053570    -1.690464
 H    -5.138756    -0.198959    -2.605246
 C    -5.252998     0.753439    -0.669504
 C    -6.687553     1.168911    -0.823068
 H    -7.103039     1.539189     0.124631
 H    -7.314775     0.330713    -1.163538
 H    -6.791838     1.974175    -1.568821
 H    -1.261095    -4.018521     0.142754
 C    -3.192508    -3.119703     0.560334
 H    -3.773036    -2.210190     0.355343
 H    -3.139794    -3.244722     1.651914
 H    -1.862043    -3.036088    -1.171392
 H    -3.765149    -3.973223     0.164952
 H    -2.058667    -1.194114     2.270121
 C    -0.630583    -2.612749     3.089394
 H     0.440140    -2.853057     3.039719
 H    -1.189289    -3.527674     2.838268
 H    -0.407673    -0.553334     2.424003
 H    -0.863208    -2.363687     4.135851
 C     1.231016     2.254557     0.729320
 C    -0.009339     2.757953     0.329210
 H    -0.779599     2.055092     0.011099
 C     2.226613     3.133885     1.156896
 H     3.184082     2.731579     1.493108
 C    -0.232767     4.130490     0.330501
 H    -1.205746     4.510298     0.005571
 C     1.987365     4.506642     1.152458
 H     2.777692     5.186581     1.483081
 C     0.759647     5.032986     0.735821
 C     0.497670     6.511372     0.756268
 H    -0.106047     6.825662    -0.108221
 H     1.434143     7.087233     0.744583
 H    -0.057240     6.804719     1.663279
 H     4.135841     0.081029     0.488857
 C     4.598566    -0.250905    -1.607238
 H     4.270946     0.072701    -2.607488
 H     4.502375    -1.344430    -1.565962
 H     3.882862     1.505486    -0.534533
 H     5.665119     0.003092    -1.512187
 H     0.294142     0.840961    -1.937684
 C     1.962327     2.155026    -2.485575
 H     3.043435     2.096294    -2.681490
 H     1.799095     2.935221    -1.729980
 H     1.558404     0.050362    -2.849807
 H     1.482802     2.493597    -3.417261
