  66
scf done:    -3337.755175
 C     1.025613    -0.545712     1.953889
 H     0.404105    -1.043077     2.706716
 H     1.926834    -1.110872     1.690934
 C     1.056248     0.877651     1.894865
 H     0.488529     1.458462     2.632770
 H     1.991143     1.381333     1.620442
 H    -0.602174     1.088989    -0.602469
Co     0.001213     0.104509     0.364015
 C     3.238193    -0.017866    -0.565974
 C     1.334346     0.134553    -2.739365
 C     1.758725     2.446931    -1.247310
 C    -3.309764     0.195953     0.261036
 C    -2.235041     0.231488     2.963233
 C    -2.010909     2.552945     1.477788
 P    -1.843155     0.740188     1.235820
 P     1.561451     0.641998    -0.990316
 C    -0.431385    -1.463647    -0.249813
 O    -0.691533    -2.518624    -0.646925
 C     4.276034     0.728688     0.026128
 O     4.056978     2.049803     0.198871
 C     5.015188     2.835723     0.846488
 H     4.601653     3.851360     0.895217
 H     5.211084     2.479972     1.872839
 H     5.968443     2.866621     0.290258
 C     3.425674    -1.413485    -0.667703
 O     2.388545    -2.110494    -1.167114
 C     2.386075    -3.510244    -1.104661
 H     1.384646    -3.826834    -1.419602
 H     2.564085    -3.866244    -0.075829
 H     3.143066    -3.951032    -1.776486
 C     4.615808    -2.029793    -0.264088
 H     4.747975    -3.105921    -0.366505
 C     5.472133     0.120617     0.431237
 H     6.273082     0.710183     0.874487
 C     5.630483    -1.250402     0.276002
 H     6.563322    -1.723109     0.592278
 H     1.216330    -0.952206    -2.802428
 H     0.411677     0.616190    -3.094167
 H     2.183303     0.455130    -3.361309
 H     2.646726     2.698192    -1.842772
 H     0.846658     2.762519    -1.775025
 H     1.801501     2.962671    -0.282389
 C    -3.925093     0.999384    -0.718944
 O    -3.456065     2.256833    -0.852837
 C    -3.975439     3.090994    -1.846532
 H    -3.423660     4.037528    -1.777644
 H    -3.831658     2.666577    -2.855456
 H    -5.050204     3.295011    -1.695773
 C    -3.719147    -1.150816     0.344164
 O    -3.057671    -1.918513     1.232318
 C    -3.214553    -3.310136     1.202330
 H    -2.503510    -3.716077     1.932935
 H    -2.970982    -3.716499     0.207258
 H    -4.235710    -3.615112     1.490048
 C    -4.743656    -1.658189    -0.463591
 H    -5.053381    -2.698826    -0.380289
 C    -4.957229     0.502398    -1.525536
 H    -5.437403     1.137187    -2.268675
 C    -5.358165    -0.820227    -1.384531
 H    -6.160425    -1.209324    -2.015931
 H    -2.206713    -0.857903     3.057421
 H    -1.466889     0.671750     3.616414
 H    -3.223760     0.603924     3.270583
 H    -3.030602     2.840353     1.771475
 H    -1.310999     2.818270     2.283648
 H    -1.720143     3.083399     0.566878
