  88
scf done:    -5863.579708
 C    -1.416368    -0.826750     3.477636
 H    -2.262047    -0.297317     3.928420
 H    -1.630864    -1.859848     3.188216
 C    -0.098165    -0.454015     3.799045
 H     0.080016     0.361181     4.507446
 H     0.715966    -1.180592     3.737875
 H    -0.124971    -1.121029     1.472075
Co    -0.568106     0.204769     1.942938
 C    -2.506397    -1.757352    -0.042062
 O    -3.489112     0.587320     0.878890
 O    -1.750741     0.506864    -1.062937
 C     1.997523     2.164614     0.788742
 O     2.490255    -0.298313     1.909762
 O     1.533161    -0.056903    -0.481011
 P     1.296142     0.506117     1.072456
 P    -2.020601    -0.090310     0.479235
 C    -1.033619     1.818040     2.470582
 O    -1.354294     2.856637     2.833370
 C    -2.029369    -2.332255    -1.223162
 H    -1.403898    -1.748457    -1.899299
 C    -3.313034    -2.504207     0.822925
 H    -3.688796    -2.046529     1.742339
 C    -2.359933    -3.652069    -1.520375
 H    -1.983569    -4.110762    -2.437824
 C    -3.664791    -3.823263     0.525031
 C    -4.577819    -4.593524     1.433074
 H    -4.394627    -4.349825     2.489758
 H    -5.632098    -4.350608     1.220120
 H    -4.456189    -5.678207     1.303682
 C    -3.167783    -4.387634    -0.656446
 H    -3.422708    -5.421934    -0.903232
 C    -4.698886     0.361347     0.280903
 C    -4.849604     0.193243    -1.096741
 H    -3.977671     0.232985    -1.749312
 C    -5.813929     0.318946     1.119085
 H    -5.669293     0.457663     2.192101
 C    -6.116908    -0.028629    -1.628572
 H    -6.246683    -0.165595    -2.703177
 C    -7.080670     0.103954     0.588004
 H    -7.958085     0.069796     1.235684
 C    -7.226567    -0.074738    -0.787423
Cl    -8.801715    -0.353822    -1.454689
 C    -1.208157     1.737320    -1.296529
 C    -1.571863     2.858466    -0.548879
 H    -2.316539     2.769142     0.242549
 C    -0.293947     1.859558    -2.343053
 H    -0.016709     0.969819    -2.909908
 C    -0.997761     4.095355    -0.826980
 H    -1.263929     4.972270    -0.235600
 C     0.256497     3.100097    -2.643788
 H     0.967439     3.207098    -3.464537
 C    -0.089884     4.211272    -1.875098
Cl     0.603803     5.761179    -2.231826
 C     1.920018     3.086159     1.837250
 H     1.438506     2.812319     2.778766
 C     2.627647     2.528667    -0.404913
 H     2.680112     1.802381    -1.216290
 C     2.472997     4.354727     1.681486
 H     2.414123     5.076733     2.499190
 C     3.194875     3.794102    -0.570864
 C     3.863227     4.172512    -1.859264
 H     4.786017     4.744562    -1.681333
 H     4.119317     3.284737    -2.454651
 H     3.195773     4.806826    -2.464662
 C     3.101376     4.704830     0.488824
 H     3.529771     5.704450     0.376013
 C     3.736623    -0.642239     1.457366
 C     4.686165     0.304831     1.074209
 H     4.461908     1.367960     1.153270
 C     4.045521    -2.003257     1.409081
 H     3.291409    -2.724214     1.727330
 C     5.918527    -0.116780     0.578290
 H     6.665385     0.613168     0.261841
 C     5.273902    -2.426713     0.920163
 H     5.509607    -3.489664     0.851278
 C     6.200372    -1.477822     0.486611
Cl     7.718084    -1.999375    -0.169275
 C     1.941847    -1.295630    -0.882644
 C     1.284218    -2.466428    -0.505657
 H     0.403542    -2.415680     0.133832
 C     3.058011    -1.359879    -1.720065
 H     3.568295    -0.435379    -1.994751
 C     1.766747    -3.700387    -0.934106
 H     1.261732    -4.621058    -0.637367
 C     3.541725    -2.588526    -2.149912
 H     4.430581    -2.647150    -2.779678
 C     2.898713    -3.758293    -1.743769
Cl     3.519493    -5.296561    -2.246412
