 114
scf done:    -3966.266235
 C    -0.480422    -1.323208    -2.928678
 H    -0.459730    -0.629407    -3.776712
 H     0.344723    -2.042241    -2.927610
 C    -1.716211    -1.671779    -2.337340
 H    -2.640276    -1.239372    -2.734307
 H    -1.849388    -2.668155    -1.905418
 H     0.021855    -1.600292    -0.587843
Co    -0.668791    -0.411068    -1.145680
 C     2.531030    -0.871798    -1.757487
 C     1.738466     1.966085    -1.513351
 C     2.018311     0.400676     0.814840
 C    -1.260598     0.852023     1.969581
 C    -3.513164    -0.564538     0.939199
 C    -1.250292    -2.083652     1.726895
 P    -1.644701    -0.537130     0.792820
 P     1.350485     0.258043    -0.897374
 C    -1.326936     1.066294    -1.802265
 O    -1.695496     2.034401    -2.312756
 C     2.937965    -2.075938    -1.147536
 O     2.526597    -2.274353     0.123474
 C     2.721708    -3.515265     0.735396
 H     2.230179    -3.457889     1.715670
 H     2.261530    -4.333165     0.154431
 H     3.791981    -3.740263     0.887755
 C     2.865106    -0.697965    -3.114714
 O     2.366815     0.400595    -3.716978
 C     2.539810     0.582058    -5.092536
 H     2.003262     1.503413    -5.353384
 H     2.113255    -0.256022    -5.670264
 H     3.603466     0.701318    -5.363706
 C     3.646518    -1.633360    -3.804985
 H     3.910044    -1.474966    -4.849613
 C     3.714379    -3.020644    -1.829288
 H     4.034666    -3.937667    -1.336786
 C     4.070462    -2.782565    -3.150734
 H     4.678559    -3.515252    -3.686299
 H     2.821266     2.094430    -1.669155
 H     1.267946     2.042983    -2.501240
 C     1.178426     3.040328    -0.587700
 H     0.199991     2.719653    -0.189127
 H     1.830487     3.165260     0.293371
 C     1.007246     4.384434    -1.280886
 H     0.278222     4.268204    -2.102775
 H     1.959522     4.679955    -1.758532
 C     0.546631     5.493325    -0.345633
 H    -0.381068     5.172642     0.160058
 H     1.288981     5.618236     0.462620
 C     0.318447     6.822600    -1.046229
 H    -0.010728     7.604483    -0.344627
 H    -0.450624     6.732547    -1.830442
 H     1.240047     7.180341    -1.533279
 H     1.435614     1.218320     1.265603
 H     1.732431    -0.508701     1.354469
 C     3.506103     0.674075     0.950611
 H     4.080204    -0.115168     0.437380
 H     3.766292     1.617436     0.439311
 C     3.951909     0.757015     2.403740
 H     3.720804    -0.201724     2.903688
 H     3.348698     1.522556     2.926812
 C     5.430330     1.071060     2.580665
 H     6.026913     0.309766     2.047542
 H     5.657909     2.029369     2.081155
 C     5.863869     1.136650     4.036206
 H     6.935838     1.366092     4.134531
 H     5.681080     0.179090     4.550772
 H     5.306515     1.914092     4.583830
 C    -0.401128     0.807700     3.085517
 O     0.130283    -0.389641     3.410922
 C     0.936103    -0.511226     4.547267
 H     1.210264    -1.572096     4.619046
 H     1.858583     0.088011     4.466072
 H     0.396992    -0.219870     5.465461
 C    -1.800206     2.112074     1.630564
 O    -2.617023     2.119027     0.559207
 C    -3.182441     3.318918     0.108054
 H    -3.773985     3.065887    -0.779669
 H    -2.408022     4.047008    -0.184847
 H    -3.839411     3.768635     0.872089
 C    -1.503634     3.271868     2.354505
 H    -1.932899     4.231827     2.071850
 C    -0.094990     1.964563     3.816604
 H     0.575759     1.916045     4.672917
 C    -0.645325     3.183725     3.442717
 H    -0.401653     4.082959     4.013075
 H    -3.780186    -1.511986     1.435703
 H    -3.800830     0.238972     1.632545
 C    -4.271181    -0.425438    -0.367954
 H    -3.856664     0.420485    -0.938767
 H    -4.096764    -1.315760    -0.992611
 C    -5.765776    -0.222964    -0.168322
 H    -5.931191     0.679230     0.450029
 H    -6.181636    -1.063741     0.417510
 C    -6.537363    -0.087270    -1.473614
 H    -6.112090     0.748998    -2.056780
 H    -6.368931    -0.989776    -2.087372
 C    -8.029245     0.129331    -1.278676
 H    -8.557416     0.224464    -2.239750
 H    -8.227685     1.045054    -0.698152
 H    -8.486332    -0.710152    -0.730001
 H    -0.164658    -2.088833     1.885360
 H    -1.724852    -2.045773     2.720778
 C    -1.652340    -3.336111     0.964917
 H    -2.736321    -3.338231     0.752228
 H    -1.150645    -3.318648    -0.016076
 C    -1.284328    -4.615796     1.702438
 H    -1.790607    -4.640569     2.685025
 H    -0.201462    -4.604439     1.926848
 C    -1.620957    -5.880945     0.925874
 H    -2.702530    -5.890608     0.702786
 H    -1.117239    -5.843229    -0.056280
 C    -1.236198    -7.159526     1.652347
 H    -1.491254    -8.055228     1.065729
 H    -1.752859    -7.239375     2.622573
 H    -0.153248    -7.193148     1.855475
