 100
scf done:    -3658.876698
 C    -1.004088    -0.381431    -3.911076
 H    -0.536211    -0.847679    -4.782513
 H    -2.063844    -0.631390    -3.799685
 C    -0.511136     0.848471    -3.423190
 H     0.326115     1.336238    -3.932041
 H    -1.192148     1.555210    -2.933699
 H     1.238430    -0.840791    -3.141112
Co     0.080158    -0.680946    -2.242611
 O    -1.278573     1.188330    -0.133919
 C    -3.216731    -0.272262    -1.354316
 C    -1.567347    -1.432708     0.699156
 O     1.570696     0.078888     0.598225
 C     3.312583     0.025416    -1.489804
 C     1.432740     2.175100    -1.034497
 P     1.547912     0.334770    -1.085924
 P    -1.477482    -0.355934    -0.776636
 C     0.232605    -2.402999    -2.238263
 O     0.410824    -3.540979    -2.306651
 C    -1.686321     1.764008     1.026838
 C    -1.158205     1.372487     2.260763
 H    -0.430247     0.562393     2.296837
 C    -2.572219     2.843207     0.957397
 H    -2.952264     3.145778    -0.020496
 C    -1.543612     2.044958     3.418697
 H    -1.128305     1.733642     4.380334
 C    -2.943932     3.513079     2.120215
 H    -3.635229     4.356991     2.057637
 C    -2.437333     3.113568     3.357017
 H    -2.731041     3.639132     4.268011
 H    -3.381656    -1.179045    -1.961459
 H    -3.227420     0.568272    -2.067222
 C    -4.300675    -0.122282    -0.295379
 H    -4.348390    -1.045315     0.305526
 H    -4.040164     0.684237     0.410289
 C    -5.696327     0.162784    -0.859556
 H    -5.913186    -0.607193    -1.624090
 C    -6.742051     0.040985     0.242915
 H    -6.729592    -0.959680     0.702413
 H    -7.757165     0.222417    -0.142705
 H    -6.552309     0.776733     1.042308
 C    -5.776032     1.530513    -1.529414
 H    -6.781611     1.714102    -1.937828
 H    -5.062675     1.632929    -2.361081
 H    -5.560838     2.330964    -0.801563
 H    -2.244267    -0.973372     1.437765
 H    -0.558794    -1.437070     1.136396
 C    -2.014232    -2.854989     0.381273
 H    -2.971536    -2.835126    -0.167303
 H    -1.287884    -3.336711    -0.293263
 C    -2.192417    -3.729774     1.626340
 H    -2.910900    -3.213428     2.291604
 C    -2.794151    -5.075751     1.239742
 H    -3.758313    -4.954796     0.721203
 H    -2.964461    -5.707801     2.124946
 H    -2.118478    -5.624709     0.563079
 C    -0.888063    -3.917094     2.391669
 H    -1.042565    -4.534483     3.289995
 H    -0.446824    -2.963806     2.718677
 H    -0.137207    -4.421928     1.763026
 C     1.967946    -1.034365     1.253142
 C     2.155536    -0.902970     2.636504
 H     1.991619     0.076342     3.091174
 C     2.180536    -2.276017     0.643676
 H     2.009445    -2.402487    -0.424062
 C     2.561274    -1.996637     3.393913
 H     2.708009    -1.878404     4.470379
 C     2.595011    -3.361258     1.414956
 H     2.758770    -4.323932     0.924569
 C     2.789498    -3.233252     2.787755
 H     3.112300    -4.089670     3.382966
 H     3.423940     0.373478    -2.531101
 H     3.427658    -1.067662    -1.536999
 C     4.345946     0.659359    -0.570431
 H     4.347362     1.750993    -0.726589
 H     4.057493     0.504962     0.483479
 C     5.769896     0.127051    -0.759860
 H     6.018573     0.198894    -1.835706
 C     6.759914     0.992817     0.011009
 H     6.716089     2.044294    -0.313594
 H     7.794168     0.640431    -0.124535
 H     6.538910     0.967887     1.091269
 C     5.890678    -1.334334    -0.339445
 H     6.919415    -1.701838    -0.476294
 H     5.227516    -1.994122    -0.918522
 H     5.626326    -1.456577     0.724235
 H     0.415508     2.395378    -1.383830
 H     2.121378     2.530355    -1.819961
 C     1.664037     2.879123     0.295917
 H     1.107086     2.343734     1.076175
 H     2.725662     2.824182     0.592561
 C     1.208893     4.339999     0.295578
 H     0.163315     4.351926    -0.066426
 C     1.206218     4.890425     1.716890
 H     0.545985     4.297142     2.368818
 H     0.857440     5.934706     1.743418
 H     2.220339     4.867270     2.150567
 C     2.042691     5.210727    -0.636884
 H     1.691721     6.254470    -0.630747
 H     2.002850     4.856592    -1.678416
 H     3.101010     5.214311    -0.324623
