 110
scf done:    -4562.042259
 C    -0.944580    -0.473719    -3.232925
 H    -1.606767    -1.307589    -3.490045
 H    -1.404985     0.511786    -3.354406
 C     0.453495    -0.614147    -3.361102
 H     0.883826    -1.556555    -3.714667
 H     1.065205     0.257579    -3.609019
 H     0.007926     0.789743    -1.415691
Co    -0.082727    -0.677873    -1.415112
 C    -2.832510     1.131829    -0.987307
 O    -2.733814    -1.543075    -0.147544
 O    -1.674376     0.191916     1.332183
 C     2.252480    -1.260672     1.169922
 O     2.959187    -0.741536    -1.440003
 O     2.092234     1.102693     0.196863
 P     1.728020    -0.417190    -0.378406
 P    -1.779342    -0.200078    -0.292429
 C    -0.185699    -2.438534    -1.383512
 O    -0.265786    -3.582575    -1.405543
 C    -2.323250     2.444646    -0.882802
 O    -1.172296     2.562447    -0.206416
 C    -0.704123     3.832750     0.167964
 H     0.147975     3.659499     0.832313
 H    -0.357695     4.407624    -0.706675
 H    -1.481304     4.392872     0.713578
 C    -3.995564     0.930499    -1.755853
 O    -4.400327    -0.336289    -1.943423
 C    -5.643391    -0.584105    -2.541510
 H    -5.794952    -1.669160    -2.500515
 H    -5.662506    -0.254689    -3.594400
 H    -6.461779    -0.092361    -1.989353
 C    -4.682405     2.023644    -2.303865
 H    -5.595288     1.872286    -2.877278
 C    -2.998224     3.535152    -1.438403
 H    -2.603989     4.544668    -1.334194
 C    -4.179804     3.307740    -2.133451
 H    -4.717687     4.153439    -2.568552
 C    -3.968625    -1.824939     0.349425
 C    -4.547261    -1.152313     1.421713
 H    -4.008809    -0.346775     1.915278
 C    -4.616521    -2.914030    -0.263081
 C    -3.945981    -3.623714    -1.397892
 H    -4.595466    -4.403226    -1.819672
 H    -3.671959    -2.910526    -2.190852
 H    -3.001823    -4.091916    -1.078478
 C    -5.810644    -1.535370     1.874133
 H    -6.261249    -1.000577     2.713659
 C    -5.875813    -3.277708     0.214777
 H    -6.392636    -4.118864    -0.256292
 C    -6.481654    -2.593852     1.270468
 H    -7.469592    -2.896821     1.624271
 C    -1.965382     1.272634     2.106124
 C    -3.164350     1.984408     2.014073
 H    -3.908161     1.707123     1.268498
 C    -1.004852     1.610751     3.078698
 C     0.247892     0.803565     3.196207
 H     0.019424    -0.255902     3.386948
 H     0.827861     0.830746     2.263275
 H     0.884071     1.174220     4.011587
 C    -3.395758     3.071926     2.856001
 H    -4.332008     3.627736     2.764538
 C    -1.267862     2.699962     3.911751
 H    -0.524122     2.969402     4.667105
 C    -2.446187     3.439067     3.804253
 H    -2.624152     4.288497     4.467414
 C     3.507954    -0.999699     1.771152
 O     4.250335    -0.020391     1.237272
 C     5.573970     0.166804     1.661316
 H     5.983480     0.967490     1.034801
 H     5.621099     0.473763     2.720161
 H     6.175697    -0.744515     1.509790
 C     1.411412    -2.209610     1.797006
 O     0.184437    -2.368685     1.291339
 C    -0.728465    -3.251149     1.888043
 H    -1.652455    -3.163325     1.306486
 H    -0.933813    -2.968034     2.933949
 H    -0.369005    -4.293128     1.851282
 C     1.848152    -2.938165     2.912250
 H     1.200123    -3.679817     3.375394
 C     3.946449    -1.735137     2.879531
 H     4.925028    -1.547195     3.317305
 C     3.114406    -2.702060     3.428173
 H     3.456803    -3.276207     4.292583
 C     4.302111    -0.963547    -1.361812
 C     5.167101     0.082168    -1.689704
 H     4.735803     1.057349    -1.924519
 C     4.784789    -2.248958    -1.069545
 C     3.860886    -3.394620    -0.778496
 H     3.725677    -3.540015     0.305395
 H     2.865144    -3.225606    -1.210026
 H     4.263388    -4.330883    -1.191850
 C     6.540763    -0.130299    -1.704150
 H     7.214049     0.690258    -1.964004
 C     6.174436    -2.429402    -1.084587
 H     6.571915    -3.424574    -0.864903
 C     7.050130    -1.391334    -1.391758
 H     8.127647    -1.570708    -1.403503
 C     2.340844     2.253167    -0.473665
 C     2.216687     2.384343    -1.857486
 H     1.911504     1.524258    -2.450143
 C     2.749597     3.340939     0.322061
 C     2.880303     3.173958     1.804886
 H     1.892059     3.102840     2.289651
 H     3.407545     2.239739     2.043817
 H     3.415758     4.022859     2.252074
 C     2.476228     3.613196    -2.462463
 H     2.371102     3.707236    -3.545934
 C     3.007793     4.556237    -0.313941
 H     3.328765     5.406325     0.294960
 C     2.869566     4.705531    -1.694363
 H     3.078799     5.668192    -2.165957
