 100
scf done:    -4182.846514
 C     0.085092     1.321499    -3.423131
 H     0.625511     2.232363    -3.152078
 H     0.557043     0.748283    -4.226930
 C    -1.300297     1.222687    -3.204412
 H    -1.845558     2.062922    -2.763222
 H    -1.910099     0.571567    -3.839314
 H    -0.316271     1.448844    -1.023585
Co    -0.276810     0.186903    -1.784387
 C    -2.934825     1.243398    -0.014478
 O    -2.907451    -1.294895    -0.953172
 O    -1.482061    -0.596406     1.116016
 C     2.608566    -1.227347    -0.469124
 O     2.691656     1.198206    -1.629069
 O     1.651898     0.871232     0.698560
 P     1.579894     0.226719    -0.837920
 P    -1.834325    -0.130096    -0.450028
 C    -0.290972    -1.377397    -2.583786
 O    -0.351185    -2.402727    -3.095501
 C    -2.653232     2.074673     1.073553
 H    -1.802739     1.861158     1.722200
 C    -4.013453     1.530945    -0.853848
 H    -4.226108     0.878031    -1.704868
 C    -3.465153     3.178294     1.313724
 H    -3.249538     3.830713     2.163279
 C    -4.840488     2.633518    -0.615318
 C    -6.013543     2.905707    -1.511391
 H    -5.700073     2.994183    -2.563364
 H    -6.745625     2.083924    -1.460079
 H    -6.528890     3.835060    -1.231589
 C    -4.548660     3.452897     0.480123
 H    -5.182531     4.320876     0.682045
 C    -4.123140    -1.626845    -0.414992
 C    -4.440679    -1.473749     0.934199
 H    -3.704903    -1.064769     1.625946
 C    -5.068240    -2.151928    -1.297582
 H    -4.796397    -2.261800    -2.349284
 C    -5.707659    -1.843362     1.381536
 H    -5.948999    -1.713494     2.440208
 C    -6.324812    -2.519279    -0.830461
 H    -7.056307    -2.927450    -1.533802
 C    -6.672138    -2.371797     0.518655
 C    -8.022490    -2.794841     1.020654
 H    -8.270089    -2.303688     1.972626
 H    -8.060412    -3.883670     1.193021
 H    -8.815905    -2.554021     0.297184
 C    -0.607276    -1.601515     1.424503
 C    -0.400564    -2.706650     0.595614
 H    -0.952191    -2.803994    -0.339564
 C     0.063455    -1.517523     2.642858
 H    -0.126052    -0.657439     3.285930
 C     0.492763    -3.699769     0.985385
 H     0.652714    -4.552755     0.320709
 C     0.942069    -2.527257     3.022901
 H     1.456786    -2.451462     3.985026
 C     1.179409    -3.635638     2.202156
 C     2.113382    -4.735226     2.614385
 H     2.875190    -4.916437     1.840580
 H     1.571322    -5.682336     2.768180
 H     2.633210    -4.493260     3.552106
 C     2.736354    -2.204587    -1.462950
 H     2.173572    -2.124225    -2.394790
 C     3.334187    -1.348785     0.716011
 H     3.223326    -0.584605     1.486154
 C     3.592353    -3.281972    -1.264352
 H     3.693380    -4.046267    -2.038505
 C     4.203395    -2.424298     0.924520
 C     4.987824    -2.514938     2.199939
 H     5.736953    -1.708666     2.256132
 H     4.328918    -2.406646     3.075393
 H     5.516737    -3.474499     2.285899
 C     4.323128    -3.387382    -0.080983
 H     4.998648    -4.235193     0.065233
 C     4.007185     1.261378    -1.237891
 C     4.401360     2.088646    -0.188577
 H     3.659036     2.700240     0.326389
 C     4.953411     0.483084    -1.904557
 H     4.625698    -0.164388    -2.719306
 C     5.740948     2.121401     0.194379
 H     6.040837     2.770577     1.021812
 C     6.285519     0.525976    -1.510026
 H     7.016775    -0.096451    -2.033397
 C     6.705880     1.341838    -0.451430
 C     8.150810     1.393764    -0.046183
 H     8.272739     1.826243     0.957162
 H     8.738680     2.011899    -0.745196
 H     8.604171     0.390898    -0.042338
 C     1.105126     2.040546     1.122538
 C     0.901754     3.143318     0.284836
 H     1.195455     3.094024    -0.763961
 C     0.779206     2.136978     2.475538
 H     0.970446     1.278865     3.120344
 C     0.330952     4.302041     0.802561
 H     0.162008     5.148648     0.131438
 C     0.222383     3.310219     2.977671
 H    -0.031654     3.366521     4.039840
 C    -0.027530     4.410773     2.151029
 C    -0.649205     5.669800     2.682056
 H    -1.558067     5.933302     2.118013
 H     0.040447     6.525303     2.599523
 H    -0.926639     5.566294     3.740641
