  84
scf done:    -4121.682483
 C     0.540090    -0.016604     3.452515
 H     1.038323    -0.878996     3.908118
 H     1.093758     0.920565     3.561175
 C    -0.866391    -0.005275     3.350872
 H    -1.448666    -0.857128     3.717087
 H    -1.408591     0.943457     3.410034
 H     0.022206     1.153946     1.434340
Co    -0.022494    -0.323591     1.537692
 C     1.671483     1.268841    -0.988200
 C     3.152711     0.683576     1.374223
 C     2.538697    -1.384389    -0.477836
 C    -1.648462    -1.018981    -1.336558
 C    -3.319486    -0.974251     0.975700
 C    -2.440266     1.475321    -0.134500
 P    -1.792432    -0.188608     0.297910
 P     1.748816     0.038060     0.382632
 C     0.151868    -2.064332     1.645575
 O     0.324389    -3.197143     1.744660
 C     2.414482     1.107931    -2.162796
 H     3.048114     0.229931    -2.297281
 C     0.865038     2.404054    -0.846587
 H     0.277108     2.521370     0.066431
 C     2.340320     2.068869    -3.169229
 H     2.920887     1.937020    -4.085669
 C     0.780359     3.376443    -1.847782
 C    -0.111789     4.572250    -1.689708
 H    -0.378926     4.738679    -0.637533
 H     0.365581     5.484533    -2.077169
 H    -1.053881     4.432855    -2.244361
 C     1.530291     3.190225    -3.016221
 H     1.479010     3.937237    -3.813477
 C     3.619594    -0.099252     2.440114
 H     3.153030    -1.065913     2.643996
 C     3.754815     1.921879     1.134105
 H     3.409501     2.545518     0.307125
 C     4.670575     0.332898     3.239446
 H     5.046624    -0.269882     4.068000
 C     4.800169     2.375548     1.938281
 H     5.276447     3.342113     1.764283
 C     5.245737     1.573299     2.979134
 F     6.246311     1.997652     3.747654
 C     3.925936    -1.563940    -0.550105
 H     4.593820    -0.862948    -0.045141
 C     1.706928    -2.298401    -1.138076
 H     0.623045    -2.182361    -1.089995
 C     4.472921    -2.626904    -1.265199
 H     5.551827    -2.781430    -1.324747
 C     2.239132    -3.356571    -1.866661
 H     1.594466    -4.067451    -2.386094
 C     3.619684    -3.507946    -1.918588
 F     4.137521    -4.522117    -2.607700
 C    -2.076179    -2.340783    -1.501395
 H    -2.633059    -2.842216    -0.707383
 C    -0.938893    -0.399287    -2.375466
 H    -0.585957     0.627355    -2.253605
 C    -1.790178    -3.022215    -2.683744
 H    -2.129049    -4.053759    -2.807386
 C    -0.649967    -1.070817    -3.566599
 C     0.148640    -0.406075    -4.647970
 H     0.076147     0.688518    -4.588611
 H     1.216099    -0.664225    -4.548507
 H    -0.177658    -0.728971    -5.647505
 C    -1.084346    -2.395445    -3.706295
 H    -0.866471    -2.938656    -4.630009
 C    -3.201995    -2.084153     1.821991
 H    -2.214235    -2.457878     2.092282
 C    -4.603856    -0.513911     0.657071
 H    -4.728818     0.356206     0.010335
 C    -4.327238    -2.733414     2.322105
 H    -4.241446    -3.601615     2.977820
 C    -5.738720    -1.143554     1.159512
 H    -6.742440    -0.787125     0.921045
 C    -5.585285    -2.250197     1.985612
 F    -6.666434    -2.856398     2.468150
 C    -3.067828     1.765664    -1.352158
 H    -3.134604     1.000491    -2.128198
 C    -2.381493     2.475125     0.844600
 H    -1.881101     2.260799     1.791231
 C    -3.615746     3.024080    -1.593043
 H    -4.100741     3.264430    -2.540979
 C    -2.935795     3.731673     0.624635
 H    -2.896123     4.516442     1.382200
 C    -3.544182     3.990776    -0.598107
 F    -4.058067     5.196516    -0.825990
