  80
scf done:    -5634.606515
 C    -0.294229    -3.308472    -1.272182
 H    -0.931503    -3.976333    -0.683287
 H    -0.707582    -3.049321    -2.250990
 C     1.098948    -3.295867    -1.073024
 H     1.546039    -3.976728    -0.340865
 H     1.768272    -3.020694    -1.893547
 H     0.429583    -1.013568    -1.579466
Co     0.248843    -1.649695    -0.244336
 O    -1.840747     0.400452    -1.503837
 C    -3.071597    -1.770174    -0.452091
 C    -2.131581     0.319481     1.226570
 O     2.169909     0.329851     1.494786
 C     3.387096    -0.514309    -0.783482
 C     1.348757     1.481144    -0.735408
 P     1.734943    -0.181256    -0.074914
 P    -1.633302    -0.668612    -0.226371
 C     0.183066    -2.323163     1.369703
 O     0.146345    -2.753785     2.434403
 C    -2.669486     1.490523    -1.499346
 C    -2.259443     2.665941    -0.866825
 H    -1.304986     2.680586    -0.340319
 C    -3.893720     1.440524    -2.166531
 H    -4.202640     0.515138    -2.653919
 C    -3.071875     3.794237    -0.912107
 H    -2.738312     4.713776    -0.425960
 C    -4.703977     2.575090    -2.201305
 H    -5.661525     2.534909    -2.726102
 C    -4.297765     3.753272    -1.576769
 H    -4.934350     4.640074    -1.610821
 C    -3.515127    -2.081703    -1.741747
 H    -3.062569    -1.581488    -2.600984
 C    -3.633432    -2.443587     0.639126
 H    -3.288438    -2.227201     1.653761
 C    -4.519954    -3.023069    -1.942256
 H    -4.872167    -3.262732    -2.946862
 C    -4.635562    -3.390422     0.451681
 H    -5.079580    -3.911498     1.301324
 C    -5.077464    -3.671680    -0.841023
Cl    -6.328131    -4.843280    -1.081056
 C    -1.144243     0.751214     2.118889
 H    -0.104951     0.443311     1.983666
 C    -3.457437     0.731352     1.428187
 H    -4.241799     0.409173     0.739810
 C    -1.465097     1.582910     3.188056
 H    -0.695415     1.918237     3.884762
 C    -3.790382     1.562030     2.490397
 H    -4.819077     1.890864     2.644223
 C    -2.787190     1.986624     3.363485
Cl    -3.194198     3.027030     4.683294
 C     3.296859    -0.087463     2.146262
 C     4.501381     0.592954     1.954379
 H     4.529152     1.443356     1.271068
 C     3.234194    -1.178523     3.013946
 H     2.282663    -1.691196     3.160833
 C     5.647872     0.166768     2.618785
 H     6.590351     0.695987     2.459593
 C     4.387482    -1.594962     3.677215
 H     4.336839    -2.450026     4.355620
 C     5.596873    -0.930563     3.478639
 H     6.498715    -1.264559     3.996268
 C     3.982411    -1.746751    -0.486013
 H     3.425619    -2.486329     0.092592
 C     4.108668     0.426457    -1.525416
 H     3.664257     1.395418    -1.762709
 C     5.278473    -2.030866    -0.898230
 H     5.749593    -2.983544    -0.652461
 C     5.400596     0.146777    -1.961786
 H     5.965253     0.875829    -2.545062
 C     5.980489    -1.078737    -1.637355
Cl     7.592796    -1.423855    -2.160225
 C     1.503584     2.631355     0.046239
 H     1.861953     2.536000     1.072090
 C     0.883860     1.614127    -2.050354
 H     0.731843     0.725217    -2.665939
 C     1.193414     3.889070    -0.467303
 H     1.298128     4.784818     0.146919
 C     0.585488     2.864502    -2.578368
 H     0.209928     2.965864    -3.597317
 C     0.732536     3.997179    -1.777390
Cl     0.296259     5.548632    -2.404594
