  56
scf done:    -2958.553499
 C     3.862957     0.949297     0.753429
 H     4.640018     0.869084    -0.014897
 H     3.720343     1.968437     1.127125
 C     3.621527    -0.150169     1.616613
 H     4.212650    -1.065720     1.499979
 H     3.301781     0.036902     2.647616
 H     1.508523     0.986774     1.251724
Co     2.137069     0.046426     0.281543
 C    -0.689651     1.639979    -0.583447
 C     1.690604     3.165463    -0.869404
 C     1.098763     1.163739    -2.777055
 C    -0.796702    -1.655294     0.111374
 C     1.327780    -3.037223     1.376557
 C     0.050034    -0.921111     2.765141
 P     0.711222    -1.326780     1.109136
 P     1.096897     1.431361    -0.961996
 C     2.767177    -0.977345    -0.983669
 O     3.142785    -1.633674    -1.854109
 C    -1.701671     1.366535    -1.506002
 H    -1.462165     1.018210    -2.511216
 C    -1.049638     2.054502     0.706572
 H    -0.261553     2.242006     1.442448
 C    -3.039470     1.516033    -1.140397
 H    -3.824506     1.287243    -1.865192
 C    -2.382803     2.216765     1.085543
 C    -2.745424     2.671645     2.469914
 H    -1.863610     2.710204     3.124967
 H    -3.193597     3.678379     2.453941
 H    -3.483958     1.998209     2.932540
 C    -3.378825     1.943814     0.137630
 H    -4.431306     2.063878     0.410864
 H     1.642621     3.505707     0.174084
 H     2.743292     3.191670    -1.186784
 H     1.090106     3.834912    -1.503437
 H     0.553220     1.947380    -3.323809
 H     2.146816     1.152179    -3.110101
 H     0.664018     0.180797    -3.008272
 C    -0.616620    -2.043204    -1.225425
 H     0.392502    -2.151859    -1.632039
 C    -2.094871    -1.506965     0.599220
 H    -2.258814    -1.189223     1.631402
 C    -1.717596    -2.289398    -2.036263
 H    -1.570653    -2.599551    -3.073960
 C    -3.215875    -1.740103    -0.209924
 C    -4.596363    -1.560162     0.349133
 H    -4.777618    -2.244233     1.193439
 H    -4.733126    -0.534273     0.725872
 H    -5.368634    -1.749669    -0.409494
 C    -3.010190    -2.135147    -1.532738
 H    -3.872345    -2.321286    -2.179074
 H     1.654446    -3.455516     0.413793
 H     2.202661    -2.991237     2.041707
 H     0.557382    -3.690161     1.813577
 H    -0.589813    -1.717669     3.173579
 H     0.910322    -0.765300     3.431306
 H    -0.512801     0.021023     2.711629
