  92
scf done:    -3953.858370
 C    -1.132785     1.700599     3.586554
 H    -1.538759     2.716768     3.530658
 H    -1.833272     0.971388     4.005686
 C     0.260741     1.516197     3.779410
 H     0.911579     2.393171     3.873959
 H     0.616225     0.645126     4.339228
 H    -0.514149    -0.288656     2.436712
Co    -0.258472     1.061002     1.894649
 O    -1.726099    -1.253682     0.406882
 C    -3.548370     0.633741     1.357834
 C    -1.937723     0.989449    -1.090111
 O     1.494452     0.374438    -0.639780
 C     3.049924     0.607950     1.706541
 C     1.426179    -1.772310     1.051248
 P     1.402754     0.086890     1.018135
 P    -1.842400     0.404895     0.665312
 C     0.142863     2.675635     1.316393
 O     0.502460     3.732429     1.045874
 C    -2.622586    -2.176943    -0.042938
 C    -2.921062    -3.241576     0.810985
 H    -2.463232    -3.256510     1.802015
 C    -3.166708    -2.140252    -1.328974
 H    -2.912687    -1.327941    -2.008523
 C    -3.789753    -4.245600     0.393760
 H    -4.020595    -5.073344     1.068813
 C    -4.045068    -3.143034    -1.731543
 H    -4.482358    -3.098304    -2.731608
 C    -4.364478    -4.195919    -0.875782
 H    -5.051912    -4.979673    -1.200861
 H    -3.585360     1.718961     1.549331
 H    -3.494528     0.161512     2.350460
 C    -4.750006     0.159224     0.596565
 C    -5.403558    -1.020893     0.972966
 H    -5.040146    -1.580063     1.837795
 C    -5.251395     0.869185    -0.502871
 H    -4.792331     1.815991    -0.796900
 C    -6.490954    -1.501960     0.251095
 H    -6.972386    -2.433241     0.557600
 C    -6.340446     0.390090    -1.228801
 H    -6.711088     0.959514    -2.084616
 C    -6.958684    -0.802873    -0.860889
 H    -7.809681    -1.181176    -1.432000
 H    -2.924269     0.736641    -1.508656
 H    -1.182134     0.371862    -1.598172
 C    -1.608517     2.437985    -1.289331
 C    -0.481225     2.795066    -2.038018
 H     0.142840     2.009724    -2.469758
 C    -2.385611     3.461873    -0.731116
 H    -3.265953     3.217069    -0.132291
 C    -0.138655     4.131450    -2.224885
 H     0.752026     4.381904    -2.806221
 C    -2.044727     4.799416    -0.915038
 H    -2.660249     5.581385    -0.464111
 C    -0.918151     5.139516    -1.661571
 H    -0.646340     6.188588    -1.798954
 C     2.517333     0.879264    -1.380799
 C     3.143730     0.060729    -2.323354
 H     2.827047    -0.977951    -2.417177
 C     2.894631     2.219857    -1.249984
 H     2.363912     2.862933    -0.545399
 C     4.170058     0.579150    -3.108434
 H     4.662632    -0.068490    -3.837787
 C     3.930739     2.723836    -2.035188
 H     4.228121     3.769301    -1.922890
 C     4.577018     1.906210    -2.962039
 H     5.388301     2.304800    -3.575084
 H     2.807367     0.723466     2.774224
 H     3.218204     1.626820     1.325196
 C     4.264395    -0.252701     1.539780
 C     5.133341    -0.106211     0.451171
 H     4.941520     0.666048    -0.294961
 C     4.560862    -1.231635     2.498759
 H     3.913891    -1.338047     3.374545
 C     6.240732    -0.938041     0.308167
 H     6.899114    -0.809803    -0.554285
 C     5.670339    -2.063295     2.359323
 H     5.880086    -2.820392     3.118705
 C     6.510717    -1.925502     1.255283
 H     7.379695    -2.577590     1.140268
 H     0.380799    -2.034682     1.259359
 H     2.028846    -2.060269     1.926150
 C     1.891322    -2.462988    -0.194903
 C     3.201824    -2.927935    -0.345997
 H     3.920298    -2.796645     0.464351
 C     0.988057    -2.650504    -1.250956
 H    -0.038075    -2.295407    -1.138196
 C     3.602582    -3.554687    -1.525169
 H     4.632540    -3.906518    -1.622234
 C     1.386159    -3.278812    -2.427557
 H     0.664975    -3.417610    -3.236722
 C     2.699037    -3.730605    -2.571828
 H     3.013699    -4.222855    -3.495245
