  94
scf done:    -3952.802402
 C    -0.968677    -1.008839    -3.434728
 H    -1.187159    -2.061092    -3.647833
 H    -1.839467    -0.352140    -3.505668
 C     0.330226    -0.503456    -3.653492
 H     1.122267    -1.161607    -4.025817
 H     0.456738     0.543274    -3.942253
 H    -0.537536     0.654417    -1.696654
Co    -0.029363    -0.732709    -1.669311
 C    -1.769869     0.837865     0.775940
 O    -3.091296    -0.284174    -1.282984
 O    -2.266510    -1.778968     0.539118
 C     1.799197     0.126148     1.104765
 O     3.037302    -0.625105    -1.190425
 O     2.034821     1.704472    -1.000792
 P     1.652157     0.133365    -0.739061
 P    -1.711012    -0.560978    -0.434676
 C     0.593248    -2.368600    -1.608723
 O     1.030107    -3.431913    -1.652682
 C    -1.569668     0.696162     2.165121
 O    -1.177993    -0.503854     2.626667
 C    -1.164710    -0.731353     4.007589
 H    -0.831155    -1.766594     4.149771
 H    -0.454153    -0.068981     4.526891
 H    -2.170415    -0.611398     4.446964
 C    -2.004893     2.143058     0.283045
 O    -2.073060     2.275196    -1.053749
 C    -2.426395     3.499630    -1.628060
 H    -2.443690     3.335069    -2.712780
 H    -1.692494     4.290430    -1.398580
 H    -3.427070     3.831038    -1.300156
 C    -2.170049     3.235419     1.142654
 H    -2.382128     4.228288     0.748781
 C    -1.754784     1.786479     3.031301
 H    -1.641317     1.663104     4.106701
 C    -2.067096     3.034970     2.513145
 H    -2.214601     3.877625     3.193401
 C    -4.380403    -0.282324    -0.668262
 H    -4.262469    -0.402669     0.422573
 C    -5.159556    -1.465619    -1.208190
 H    -4.636964    -2.401118    -0.970604
 H    -5.254273    -1.390536    -2.302630
 H    -6.168936    -1.505456    -0.770854
 C    -5.062523     1.041834    -0.954083
 H    -4.548316     1.869843    -0.449054
 H    -5.066236     1.239091    -2.037158
 H    -6.104261     1.020674    -0.599570
 C    -1.659212    -3.062842     0.542911
 H    -0.566985    -2.926076     0.469141
 C    -2.140265    -3.887181    -0.637847
 H    -1.992335    -3.336318    -1.577488
 H    -3.212205    -4.117849    -0.536169
 H    -1.584822    -4.834646    -0.704411
 C    -1.981392    -3.715092     1.870944
 H    -3.071168    -3.806721     1.998074
 H    -1.541061    -4.722492     1.921523
 H    -1.588028    -3.113736     2.699430
 C     1.679879     1.249974     1.951477
 O     1.324322     2.423264     1.408337
 C     1.367920     3.587111     2.181994
 H     1.087467     4.410884     1.513818
 H     0.647938     3.553810     3.016200
 H     2.381138     3.774380     2.578545
 C     2.004109    -1.129437     1.719824
 O     2.007795    -2.189753     0.892011
 C     2.189859    -3.482129     1.399137
 H     2.105542    -4.157445     0.539201
 H     1.413247    -3.740234     2.139980
 H     3.184662    -3.600973     1.862310
 C     2.222285    -1.256199     3.095289
 H     2.417582    -2.228818     3.544007
 C     1.913278     1.128696     3.332366
 H     1.859108     2.003970     3.977214
 C     2.199305    -0.112006     3.882953
 H     2.387703    -0.192900     4.956510
 C     4.316503    -0.496114    -0.578006
 H     4.179296    -0.358149     0.510021
 C     5.062955     0.705695    -1.127857
 H     4.515818     1.631122    -0.906360
 H     5.171339     0.619506    -2.220243
 H     6.067694     0.769647    -0.682339
 C     5.040216    -1.804833    -0.821704
 H     4.444229    -2.642785    -0.435090
 H     5.187974    -1.962119    -1.901260
 H     6.024390    -1.806763    -0.329357
 C     1.524198     2.481227    -2.074312
 H     0.559831     2.041056    -2.384213
 C     2.492652     2.443400    -3.241088
 H     2.669853     1.405109    -3.556002
 H     3.459935     2.887588    -2.959221
 H     2.090593     3.003170    -4.099462
 C     1.277731     3.877579    -1.541600
 H     0.558126     3.836691    -0.712690
 H     2.214207     4.318221    -1.165206
 H     0.879866     4.530298    -2.333519
