  80
scf done:    -3272.783640
 C     0.607558    -3.437835     1.194141
 H     0.723002    -4.278453     0.500712
 H     1.501590    -3.251902     1.798754
 C    -0.671504    -3.166141     1.745763
 H    -1.520463    -3.801229     1.466353
 H    -0.743445    -2.767650     2.763053
 H     0.468054    -1.104702     1.534387
Co    -0.170454    -1.770091     0.389482
 C     1.872759     0.875658     0.388160
 C     3.139054    -1.639386    -0.202353
 C     1.487651    -0.167433    -2.278034
 C    -1.752393     0.838403    -0.903633
 C    -3.457670    -0.851783     0.686245
 C    -1.441993     1.019529     1.978809
 P    -1.689476    -0.218928     0.604336
 P     1.530657    -0.716347    -0.487138
 C    -0.944244    -2.633947    -0.917913
 O    -1.511658    -3.265027    -1.699188
 C     1.770366     2.138070    -0.204638
 H     1.527256     2.238182    -1.261579
 C     2.179354     0.813928     1.755547
 H     2.241605    -0.163544     2.242109
 C     1.945121     3.293539     0.558009
 H     1.843809     4.272521     0.082579
 C     2.367589     1.957857     2.533277
 C     2.706932     1.842556     3.991118
 H     2.228196     0.962477     4.444789
 H     3.794839     1.734987     4.136227
 H     2.388655     2.733618     4.551207
 C     2.235240     3.208360     1.915244
 H     2.360716     4.119786     2.506212
 H     2.983495    -1.971516     0.837953
 C     3.197772    -2.891443    -1.070066
 H     3.977413    -3.576231    -0.700126
 H     2.239392    -3.429581    -1.061895
 H     3.448782    -2.644562    -2.113085
 C     4.442015    -0.850304    -0.249616
 H     4.389099     0.079136     0.334998
 H     5.255523    -1.463574     0.172078
 H     4.733021    -0.588975    -1.275574
 H     0.723217     0.629150    -2.240194
 C     2.783873     0.415743    -2.834800
 H     2.578270     0.941770    -3.781605
 H     3.270874     1.126755    -2.153949
 H     3.507580    -0.381413    -3.061145
 C     0.944834    -1.236567    -3.219059
 H    -0.047499    -1.588676    -2.919507
 H     0.851866    -0.815361    -4.233053
 H     1.609170    -2.110554    -3.283163
 C    -2.153729     0.240159    -2.109098
 H    -2.493216    -0.797752    -2.122510
 C    -1.316276     2.166308    -0.940519
 H    -0.994178     2.661992    -0.024451
 C    -2.110533     0.953342    -3.301395
 H    -2.428498     0.473138    -4.229993
 C    -1.250193     2.893997    -2.136258
 C    -0.720472     4.298944    -2.140620
 H    -0.872946     4.790164    -1.168906
 H     0.363850     4.310935    -2.345947
 H    -1.202764     4.911622    -2.916064
 C    -1.653351     2.270839    -3.319856
 H    -1.614338     2.822184    -4.263341
 H    -3.421136    -1.667071    -0.057682
 C    -3.752270    -1.492053     2.038790
 H    -4.685489    -2.074799     1.983345
 H    -2.947930    -2.167643     2.356084
 H    -3.892130    -0.729655     2.820228
 C    -4.567266     0.109298     0.274156
 H    -4.370788     0.588388    -0.694804
 H    -5.516514    -0.444683     0.187031
 H    -4.721391     0.902788     1.017819
 H    -0.526790     1.531588     1.631669
 C    -2.548975     2.052841     2.161654
 H    -2.193196     2.867821     2.813005
 H    -2.882889     2.500296     1.215408
 H    -3.427883     1.608877     2.652323
 C    -1.083306     0.365999     3.309434
 H    -0.286136    -0.378934     3.181050
 H    -0.729888     1.135739     4.014204
 H    -1.947635    -0.134510     3.769580
