  96
scf done:    -3882.053861
 C    -0.519415     0.049687    -3.439058
 H    -1.030073    -0.797918    -3.908486
 H    -1.056026     0.997540    -3.540511
 C     0.886185     0.033760    -3.321695
 H     1.458406    -0.825899    -3.685961
 H     1.447317     0.972570    -3.359759
 H    -0.010090     1.184406    -1.398209
Co     0.017529    -0.292505    -1.523041
 C    -1.685574     1.271987     1.016174
 C    -3.146000     0.741285    -1.373733
 C    -2.568745    -1.362806     0.454863
 C     1.641631    -1.051827     1.340488
 C     3.300037    -0.994914    -0.989003
 C     2.468129     1.444931     0.178377
 P     1.791110    -0.199456    -0.282972
 P    -1.761442     0.065748    -0.377139
 C    -0.182699    -2.027380    -1.660485
 O    -0.374147    -3.155156    -1.785303
 C    -2.461798     1.110161     2.171142
 H    -3.121459     0.246797     2.272443
 C    -0.845203     2.383656     0.915524
 H    -0.229416     2.498000     0.020484
 C    -2.384541     2.048617     3.195993
 H    -2.989283     1.916794     4.096764
 C    -0.755165     3.334472     1.939259
 C     0.185271     4.496340     1.812668
 H     1.229952     4.157801     1.898245
 H     0.089848     4.983499     0.830772
 H     0.003966     5.249868     2.592099
 C    -1.536944     3.149505     3.084121
 H    -1.480394     3.878315     3.897593
 C    -3.621432    -0.024729    -2.447976
 H    -3.174352    -1.000808    -2.652293
 C    -3.727482     1.987471    -1.136302
 H    -3.380433     2.601728    -0.302765
 C    -4.655891     0.440465    -3.248003
 H    -5.015740    -0.179051    -4.074590
 C    -4.756695     2.456103    -1.954384
 H    -5.196444     3.436734    -1.751431
 C    -5.240429     1.695550    -3.020789
 C    -6.337177     2.201555    -3.911144
 H    -6.797085     3.114136    -3.506705
 H    -5.952146     2.438654    -4.916577
 H    -7.129405     1.447814    -4.039724
 C    -3.955656    -1.539221     0.509033
 H    -4.615165    -0.830183     0.003703
 C    -1.753062    -2.286795     1.119599
 H    -0.667887    -2.174987     1.090030
 C    -4.506587    -2.609389     1.211119
 H    -5.593526    -2.728864     1.238911
 C    -2.309728    -3.344376     1.829538
 H    -1.646420    -4.043339     2.346612
 C    -3.696687    -3.529640     1.885246
 C    -4.289319    -4.697733     2.617064
 H    -4.267858    -5.604763     1.989929
 H    -3.726435    -4.925602     3.534420
 H    -5.337665    -4.513600     2.892416
 C     2.066156    -2.375026     1.500014
 H     2.627162    -2.871887     0.706078
 C     0.930305    -0.436404     2.380452
 H     0.582927     0.592613     2.263194
 C     1.772541    -3.062432     2.677094
 H     2.108857    -4.095422     2.796545
 C     0.630901    -1.114627     3.564764
 C    -0.179139    -0.455077     4.640872
 H    -0.089681     0.639258     4.599965
 H    -1.248052    -0.694411     4.513449
 H     0.121350    -0.798361     5.641828
 C     1.061194    -2.440999     3.699145
 H     0.835025    -2.989850     4.617640
 C     3.163442    -2.139324    -1.784776
 H     2.171361    -2.540758    -1.994046
 C     4.591301    -0.509820    -0.752762
 H     4.736932     0.384965    -0.145056
 C     4.279512    -2.786721    -2.305586
 H     4.140529    -3.684741    -2.914172
 C     5.703864    -1.153171    -1.288709
 H     6.700921    -0.750086    -1.089214
 C     5.572149    -2.302852    -2.074119
 C     6.770099    -2.974962    -2.677346
 H     7.679242    -2.784187    -2.089143
 H     6.628117    -4.063211    -2.749754
 H     6.955707    -2.602253    -3.698748
 C     3.138510     1.688359     1.382108
 H     3.212285     0.899586     2.133826
 C     2.407044     2.475254    -0.766857
 H     1.876329     2.301193    -1.705533
 C     3.725780     2.927950     1.629695
 H     4.242604     3.095160     2.579033
 C     3.005162     3.706296    -0.520145
 H     2.947725     4.492404    -1.278315
 C     3.673138     3.958509     0.684633
 C     4.271212     5.304279     0.968924
 H     4.665512     5.771960     0.055018
 H     3.511607     5.989006     1.383104
 H     5.087028     5.238061     1.702882
