  84
scf done:    -4494.288397
 C    -0.733624    -4.074089     0.231259
 H    -1.474339    -4.392118     0.971459
 H    -1.073762    -4.133770    -0.806930
 C     0.638458    -4.154582     0.523524
 H     0.967799    -4.551574     1.488640
 H     1.372055    -4.260491    -0.280304
 H     0.315193    -2.124080    -0.796386
Co     0.011640    -2.231315     0.652329
 O    -1.993018    -0.874498    -1.425404
 O    -3.082812    -1.489437     0.788936
 O    -1.505408     0.517407     0.671901
 O     2.327143    -0.353977     1.776135
 O     3.051683    -1.883479    -0.138404
 O     1.591408     0.140411    -0.624933
 P     1.714663    -1.117780     0.446675
 P    -1.618401    -1.054379     0.162518
 C    -0.192127    -2.197768     2.404231
 O    -0.307258    -2.126173     3.540386
 C    -2.219643     0.302937    -2.098429
 C    -3.507689     0.605489    -2.534839
 H    -4.323972    -0.085915    -2.322958
 C    -1.150949     1.160520    -2.356681
 H    -0.155074     0.884682    -2.008140
 C    -3.726634     1.798121    -3.222420
 H    -4.735718     2.041770    -3.562856
 C    -1.385196     2.353322    -3.036580
 H    -0.551256     3.032839    -3.227398
 C    -2.672491     2.678482    -3.467452
 H    -2.852661     3.615117    -3.999560
 C    -4.293619    -1.470040     0.140094
 C    -4.573389    -2.437267    -0.825935
 H    -3.815041    -3.182186    -1.071518
 C    -5.246864    -0.509376     0.474716
 H    -5.016085     0.236479     1.235214
 C    -5.804166    -2.434376    -1.475664
 H    -6.046221    -3.175897    -2.238872
 C    -6.481576    -0.506819    -0.169376
 H    -7.244245     0.235049     0.073281
 C    -6.743854    -1.465429    -1.140667
 F    -7.922430    -1.459880    -1.761517
 C    -2.477522     1.309159     1.229708
 C    -2.857066     1.095226     2.555467
 H    -2.402123     0.277888     3.117546
 C    -3.030530     2.354201     0.490974
 H    -2.711113     2.515188    -0.538989
 C    -3.819990     1.913204     3.140171
 H    -4.140849     1.765331     4.172702
 C    -3.990805     3.175925     1.075407
 H    -4.444369     3.998453     0.519830
 C    -4.378625     2.942432     2.389752
 F    -5.300868     3.726066     2.946017
 C     3.644202    -0.217837     2.138130
 C     4.257928     1.030838     2.054687
 H     3.689970     1.884349     1.684170
 C     4.341212    -1.324331     2.624684
 H     3.834939    -2.288985     2.685687
 C     5.590694     1.161848     2.439802
 H     6.073477     2.139333     2.369663
 C     5.673726    -1.181527     3.004247
 H     6.222168    -2.049167     3.378295
 C     6.305092     0.059189     2.907660
 H     7.350514     0.167414     3.204509
 C     3.888766    -1.437791    -1.131373
 C     5.173974    -1.002127    -0.811701
 H     5.497496    -0.995012     0.229471
 C     3.456560    -1.457376    -2.458217
 H     2.447319    -1.803617    -2.686717
 C     6.028068    -0.571282    -1.824070
 H     7.038161    -0.223559    -1.601064
 C     4.305731    -1.021473    -3.471269
 H     3.991215    -1.021030    -4.516304
 C     5.582820    -0.580817    -3.140555
 F     6.397839    -0.162833    -4.108180
 C     2.001415     1.438408    -0.446647
 C     3.091900     1.918951    -1.169788
 H     3.635415     1.247543    -1.834918
 C     1.281359     2.278985     0.402805
 H     0.419431     1.878154     0.936689
 C     3.480529     3.248571    -1.026284
 H     4.332335     3.652130    -1.576300
 C     1.672311     3.606497     0.551856
 H     1.130908     4.286036     1.212274
 C     2.769848     4.074486    -0.162975
 F     3.144009     5.345601    -0.022925
