 104
scf done:    -3587.061659
 C    -0.599074     3.499409     0.985636
 H    -1.314884     4.111827     0.425606
 H    -0.886783     3.343452     2.030739
 C     0.774640     3.552806     0.636149
 H     1.092081     4.197199    -0.191735
 H     1.531195     3.440055     1.418835
 H     0.353871     1.361686     1.428274
Co    -0.037240     1.804716     0.072130
 C    -1.093718    -1.028758     1.563796
 C    -3.065463     1.025622     1.404141
 C    -2.358403    -0.458184    -0.966844
 C     1.129849    -0.737952    -1.739487
 C     3.084027     1.287176    -1.370382
 C     2.383949    -0.424775     0.842295
 P     1.619350     0.547715    -0.516560
 P    -1.598167     0.378401     0.488971
 C    -0.571512     2.299652    -1.519445
 O    -0.954449     2.618490    -2.558588
 C    -1.059017    -2.356385     1.127684
 H    -1.403788    -2.621933     0.128641
 C    -0.625329    -0.737831     2.853548
 H    -0.613023     0.302173     3.192561
 C    -0.545210    -3.355342     1.956391
 H    -0.508220    -4.387227     1.597650
 C    -0.118464    -1.725340     3.699659
 C     0.374109    -1.386875     5.076701
 H     0.522506    -0.304423     5.195510
 H    -0.346713    -1.710498     5.845602
 H     1.328674    -1.889176     5.295440
 C    -0.074488    -3.045064     3.227178
 H     0.336411    -3.833171     3.864372
 H    -2.674165     1.473023     2.332736
 H    -3.706142     0.178174     1.695149
 C    -3.825896     2.071273     0.601237
 H    -3.098704     2.786522     0.185057
 H    -4.316466     1.594095    -0.266569
 C    -4.881243     2.843313     1.395633
 H    -4.364551     3.315153     2.252889
 C    -5.475988     3.955284     0.539606
 H    -4.694727     4.635652     0.166713
 H    -6.204778     4.554995     1.106773
 H    -5.999198     3.537473    -0.336944
 C    -5.973461     1.933514     1.946734
 H    -6.728495     2.510013     2.503570
 H    -5.571506     1.170047     2.629659
 H    -6.493879     1.408833     1.127246
 H    -1.542689    -1.046531    -1.419285
 H    -2.553006     0.347926    -1.691168
 C    -3.600095    -1.316033    -0.751660
 H    -3.541262    -1.845381     0.213903
 H    -4.492496    -0.669245    -0.679693
 C    -3.824539    -2.352350    -1.856634
 H    -2.933773    -3.011171    -1.868383
 C    -5.041717    -3.213803    -1.544559
 H    -4.948907    -3.701679    -0.561453
 H    -5.183151    -4.001536    -2.300912
 H    -5.959495    -2.602525    -1.526636
 C    -3.936424    -1.712373    -3.235570
 H    -4.112086    -2.473501    -4.011750
 H    -3.021416    -1.166329    -3.509071
 H    -4.779169    -1.001172    -3.270026
 C     0.756687    -0.338392    -3.030424
 H     0.847925     0.706995    -3.333227
 C     0.973175    -2.083921    -1.388808
 H     1.253357    -2.422474    -0.390535
 C     0.230006    -1.262395    -3.928226
 H    -0.060964    -0.937460    -4.930169
 C     0.429838    -3.021977    -2.274142
 C     0.219957    -4.445235    -1.843842
 H     0.805582    -4.683481    -0.944653
 H    -0.841542    -4.633365    -1.607932
 H     0.503134    -5.154259    -2.636059
 C     0.056469    -2.593221    -3.552063
 H    -0.371924    -3.308318    -4.259833
 H     2.696305     1.820296    -2.254259
 H     3.712305     0.462486    -1.742994
 C     3.872942     2.246833    -0.492665
 H     3.185975     3.013320    -0.104807
 H     4.263244     1.712975     0.393179
 C     5.044303     2.936764    -1.196387
 H     4.638108     3.445184    -2.091413
 C     5.648678     4.001478    -0.288116
 H     4.893469     4.739910     0.022795
 H     6.466175     4.542833    -0.789186
 H     6.063734     3.545299     0.626432
 C     6.109374     1.948825    -1.659502
 H     6.946724     2.468128    -2.150928
 H     5.712479     1.213826    -2.375634
 H     6.522142     1.390969    -0.801510
 H     1.560854    -1.026347     1.261403
 H     2.604898     0.318661     1.623570
 C     3.596157    -1.289296     0.521287
 H     3.496252    -1.730541    -0.484547
 H     4.504484    -0.661738     0.481849
 C     3.815135    -2.425392     1.524722
 H     2.906120    -3.057634     1.500177
 C     5.000059    -3.287838     1.108848
 H     4.870506    -3.684723     0.089684
 H     5.135612    -4.142760     1.789557
 H     5.934636    -2.702331     1.120952
 C     3.976208    -1.913441     2.951549
 H     4.137201    -2.745350     3.655019
 H     3.087181    -1.360660     3.289784
 H     4.844947    -1.237894     3.030806
