  96
scf done:    -4254.523108
 C    -0.309759     1.834712     2.927594
 H    -0.848136     2.787334     2.873300
 H    -0.845985     1.054895     3.478147
 C     1.103793     1.822528     2.888515
 H     1.644576     2.773185     2.824407
 H     1.660825     1.031232     3.399404
 H     0.447049    -0.190794     1.706353
Co     0.344961     1.186689     1.132550
 O    -1.514513     0.019134    -1.174706
 C    -2.613672    -0.539521     1.280199
 C    -2.702075     2.063795     0.138096
 O     2.193340     0.885088    -1.422524
 C     3.411767    -0.165027     0.786252
 C     1.292497    -1.515577    -0.590888
 P     1.778453     0.127212     0.034444
 P    -1.569320     0.658182     0.392450
 C     0.527063     2.724389     0.309821
 O     0.704540     3.707917    -0.254854
 C    -2.447991    -0.800553    -1.733824
 C    -2.462145    -2.158849    -1.406748
 H    -1.747980    -2.529506    -0.671571
 C    -3.359762    -0.295462    -2.662836
 H    -3.340429     0.768420    -2.902950
 C    -3.382446    -3.008551    -2.011912
 H    -3.385215    -4.068766    -1.746267
 C    -4.278352    -1.154647    -3.265304
 H    -4.989330    -0.755900    -3.993227
 C    -4.295241    -2.511315    -2.943559
 H    -5.019499    -3.178831    -3.416046
 C    -3.982161    -0.692430     0.989792
 H    -4.460629    -0.036262     0.259439
 C    -2.036806    -1.401982     2.212836
 H    -0.975192    -1.286302     2.445999
 C    -4.734260    -1.675772     1.606772
 H    -5.793885    -1.806754     1.380928
 C    -2.780279    -2.398743     2.841853
 H    -2.293096    -3.051297     3.566454
 C    -4.138572    -2.542873     2.536304
 O    -4.943816    -3.471679     3.080871
 C    -4.408563    -4.371768     4.011171
 H    -4.016849    -3.854233     4.904352
 H    -5.228835    -5.033746     4.315925
 H    -3.600586    -4.982867     3.571921
 C    -3.555671     2.517904     1.155375
 H    -3.640442     1.953282     2.087280
 C    -2.602177     2.820407    -1.031452
 H    -1.918552     2.498732    -1.821131
 C    -4.301031     3.675373     0.993507
 H    -4.971894     4.033678     1.776550
 C    -3.349089     3.983681    -1.208812
 H    -3.246268     4.545812    -2.137195
 C    -4.207494     4.418130    -0.192240
 O    -4.970103     5.526446    -0.262553
 C    -4.905654     6.318066    -1.415155
 H    -5.223020     5.761432    -2.314833
 H    -5.593114     7.158980    -1.258537
 H    -3.889221     6.715127    -1.584782
 C     3.450914     1.059935    -1.914382
 C     4.238634    -0.015432    -2.331900
 H     3.851550    -1.031738    -2.244741
 C     3.931738     2.366681    -2.025312
 H     3.289914     3.184748    -1.691796
 C     5.509846     0.223349    -2.849241
 H     6.125644    -0.621041    -3.168576
 C     5.200607     2.594676    -2.551077
 H     5.572064     3.618907    -2.636980
 C     5.996761     1.525042    -2.961206
 H     6.994127     1.705550    -3.368308
 C     4.120669    -1.371879     0.692238
 H     3.673045    -2.228777     0.184173
 C     4.019726     0.913801     1.433887
 H     3.474614     1.856310     1.521109
 C     5.390710    -1.493055     1.232514
 H     5.949510    -2.428524     1.168438
 C     5.302854     0.813069     1.963317
 H     5.747796     1.679709     2.452228
 C     5.997283    -0.399199     1.866316
 O     7.235758    -0.604092     2.350046
 C     7.902386     0.456855     2.976002
 H     7.364207     0.807260     3.874263
 H     8.885806     0.075419     3.278449
 H     8.045519     1.311496     2.291774
 C     1.026273    -2.567625     0.299029
 H     1.163567    -2.419285     1.373548
 C     1.091201    -1.731957    -1.953647
 H     1.265145    -0.913168    -2.653829
 C     0.589844    -3.799250    -0.164352
 H     0.376190    -4.621948     0.520488
 C     0.643035    -2.962151    -2.432441
 H     0.472183    -3.084110    -3.501732
 C     0.381307    -4.003277    -1.536999
 O    -0.097185    -5.210529    -1.894006
 C    -0.408309    -5.436802    -3.242086
 H     0.484226    -5.361489    -3.887814
 H    -0.804521    -6.458211    -3.305234
 H    -1.174389    -4.729924    -3.605928
