 108
scf done:    -4039.192456
 C     0.139265     2.811299     2.758064
 H     0.479064     2.621902     3.782503
 H     0.822475     3.439913     2.177014
 C    -1.247595     2.860841     2.476677
 H    -1.969518     2.700803     3.285375
 H    -1.610489     3.513110     1.675645
 H    -0.121080     1.967661     0.593376
Co    -0.437446     1.157304     1.773421
 C     1.707961     0.525692    -0.700415
 C     2.868689     0.920383     1.967866
 C     1.537998    -1.613919     1.319665
 C    -2.154268    -1.286605     0.106365
 C    -3.755301     0.776321     1.215766
 C    -2.181016     1.290437    -1.174389
 P    -2.037074     0.508781     0.506823
 P     1.368585     0.242042     1.077906
 C    -0.685616     0.157617     3.188089
 O    -0.812484    -0.508953     4.121138
 C     1.070774    -0.263659    -1.665628
 H     0.446159    -1.105700    -1.366167
 C     2.468468     1.617747    -1.129975
 H     2.921715     2.286831    -0.395858
 C     1.228430     0.021576    -3.019178
 H     0.728420    -0.605186    -3.761715
 C     2.651858     1.907810    -2.486222
 C     3.530504     3.047671    -2.913350
 H     3.629949     3.801414    -2.119386
 H     4.545148     2.689889    -3.157109
 H     3.138650     3.546838    -3.811880
 C     2.019297     1.091813    -3.430229
 H     2.141793     1.303064    -4.496036
 H     2.902851     1.989432     1.711691
 H     2.554504     0.884428     3.021749
 C     4.192464     0.245427     1.787103
 C     4.577660    -0.787186     2.653380
 H     3.935982    -1.051184     3.498427
 C     5.066055     0.592007     0.748549
 H     4.799491     1.406777     0.073721
 C     5.772957    -1.472267     2.454219
 H     6.056069    -2.278245     3.135314
 C     6.270862    -0.083442     0.532566
 C     7.151439     0.284680    -0.626069
 H     7.073629     1.354770    -0.867452
 H     8.207000     0.053355    -0.423244
 H     6.859417    -0.276269    -1.529589
 C     6.611709    -1.130817     1.396072
 H     7.549082    -1.673205     1.245491
 H     2.197636    -1.725928     2.194433
 H     0.539814    -1.947670     1.630835
 C     2.016479    -2.474156     0.186634
 C     1.144765    -3.410401    -0.382852
 H     0.135251    -3.519815     0.017799
 C     3.300520    -2.346591    -0.348761
 H     3.989310    -1.617318     0.078844
 C     1.550334    -4.181941    -1.468147
 H     0.858369    -4.907807    -1.903597
 C     3.722333    -3.110079    -1.440833
 C     5.095055    -2.904620    -2.013645
 H     5.843838    -2.782928    -1.216548
 H     5.400617    -3.745863    -2.652067
 H     5.125250    -1.990482    -2.630368
 C     2.829936    -4.031551    -1.998881
 H     3.142523    -4.636844    -2.854459
 C    -2.123436    -2.191323     1.178518
 H    -1.977931    -1.828232     2.198343
 C    -2.337940    -1.788151    -1.183835
 H    -2.376640    -1.107351    -2.036456
 C    -2.309216    -3.551597     0.956797
 H    -2.301065    -4.244972     1.801324
 C    -2.495887    -3.159299    -1.428124
 C    -2.643929    -3.663301    -2.833543
 H    -3.306140    -3.013055    -3.424389
 H    -1.665936    -3.686168    -3.343013
 H    -3.054029    -4.682755    -2.857057
 C    -2.494684    -4.034179    -0.338963
 H    -2.630846    -5.105909    -0.507633
 H    -3.676993     0.462412     2.267193
 H    -3.895260     1.867985     1.223678
 C    -4.857519     0.048691     0.510885
 C    -5.509819     0.585395    -0.608017
 H    -5.286887     1.602350    -0.935878
 C    -5.213303    -1.241143     0.920404
 H    -4.731578    -1.664982     1.804967
 C    -6.454123    -0.164107    -1.304378
 H    -6.957031     0.270186    -2.171999
 C    -6.146407    -2.015838     0.225868
 C    -6.446086    -3.416371     0.675207
 H    -5.570759    -4.067648     0.517920
 H    -6.686085    -3.450793     1.749121
 H    -7.292619    -3.847497     0.122531
 C    -6.762298    -1.461245    -0.900336
 H    -7.497499    -2.047598    -1.458186
 H    -1.365231     0.853147    -1.768994
 H    -3.137390     0.984392    -1.624613
 C    -2.029164     2.781187    -1.141168
 C    -3.106063     3.631758    -0.860556
 H    -4.106666     3.220880    -0.715569
 C    -0.768401     3.351095    -1.342093
 H     0.074677     2.698994    -1.582772
 C    -2.912558     5.006563    -0.760991
 H    -3.760554     5.659231    -0.540061
 C    -0.553144     4.728837    -1.233969
 C     0.825686     5.290783    -1.424232
 H     1.228727     5.031576    -2.415569
 H     0.834375     6.385488    -1.328141
 H     1.522180     4.879267    -0.675903
 C    -1.642477     5.552397    -0.935500
 H    -1.494991     6.631934    -0.844516
