  96
scf done:    -3882.047680
 C     0.792712     0.587481     3.285421
 H     1.209425    -0.195016     3.927918
 H     1.471255     1.432894     3.134882
 C    -0.605292     0.775110     3.236063
 H    -1.259583     0.136428     3.838226
 H    -1.025387     1.767404     3.044640
 H     0.246170     1.284407     1.111260
Co     0.046812    -0.103133     1.541091
 C     1.951488     1.155032    -0.895457
 C     3.419850    -0.227783     1.160373
 C     2.097970    -1.717026    -0.781345
 C    -2.094309    -1.313848    -0.843166
 C    -3.270108     0.298637     1.200673
 C    -1.779651     1.512263    -0.903783
 P    -1.691041     0.097553     0.272817
 P     1.795132    -0.242610     0.285827
 C    -0.188164    -1.746925     2.104824
 O    -0.364869    -2.802182     2.532073
 C     1.643215     1.032003    -2.251915
 H     1.402527     0.054589    -2.674347
 C     2.273446     2.420030    -0.387294
 H     2.490804     2.527716     0.679775
 C     1.648836     2.159047    -3.073155
 H     1.380675     2.060669    -4.127619
 C     2.335462     3.548223    -1.207267
 C     2.782364     4.869864    -0.652430
 H     2.454508     5.003213     0.389021
 H     3.882879     4.942326    -0.656652
 H     2.397321     5.711893    -1.244851
 C     2.000711     3.402801    -2.559780
 H     2.016321     4.277531    -3.215918
 C     3.531496    -1.027096     2.302228
 H     2.656953    -1.569401     2.667490
 C     4.547475     0.460126     0.700152
 H     4.475639     1.081347    -0.196171
 C     4.752722    -1.134384     2.961599
 H     4.836188    -1.766507     3.849079
 C     5.777195     0.374458     1.361513
 C     6.968821     1.146463     0.872281
 H     7.879786     0.528939     0.880586
 H     6.816050     1.516098    -0.151643
 H     7.164695     2.020987     1.514775
 C     5.865062    -0.435642     2.499255
 H     6.818706    -0.520149     3.028220
 C     3.194446    -1.775126    -1.655296
 H     3.871363    -0.922403    -1.744324
 C     1.260657    -2.824128    -0.670542
 H     0.401249    -2.780220    -0.000819
 C     3.422421    -2.923075    -2.403214
 H     4.273838    -2.966671    -3.087011
 C     1.489786    -3.999264    -1.400626
 C     0.573675    -5.174667    -1.231767
 H     0.570896    -5.523923    -0.187174
 H    -0.463081    -4.898809    -1.481347
 H     0.871345    -6.016807    -1.872248
 C     2.577444    -4.028531    -2.274186
 H     2.773299    -4.931806    -2.858915
 C    -1.282608    -1.519361    -1.967369
 H    -0.465382    -0.828381    -2.179507
 C    -3.134067    -2.210882    -0.591249
 H    -3.785679    -2.055383     0.271652
 C    -1.525742    -2.587047    -2.822050
 H    -0.890049    -2.734146    -3.698451
 C    -3.379668    -3.305116    -1.432352
 C    -4.484853    -4.269984    -1.113545
 H    -4.176477    -4.972154    -0.321108
 H    -5.381720    -3.746838    -0.749701
 H    -4.767650    -4.866624    -1.992454
 C    -2.567295    -3.476719    -2.556301
 H    -2.752611    -4.315844    -3.232736
 C    -3.515258    -0.549612     2.289550
 H    -2.773133    -1.297224     2.576657
 C    -4.226786     1.258260     0.862214
 H    -4.044821     1.926632     0.017394
 C    -4.707616    -0.447262     2.998084
 H    -4.899044    -1.120419     3.837359
 C    -5.421572     1.388252     1.582054
 C    -6.411430     2.457885     1.220925
 H    -6.136653     3.419822     1.685181
 H    -6.446979     2.621621     0.133809
 H    -7.424616     2.204584     1.564669
 C    -5.652753     0.517050     2.649920
 H    -6.583142     0.596851     3.219144
 C    -2.463658     1.425593    -2.121701
 H    -2.920423     0.483931    -2.430366
 C    -1.225358     2.739316    -0.525866
 H    -0.684341     2.803121     0.422084
 C    -2.564540     2.545440    -2.944990
 H    -3.089106     2.468110    -3.900674
 C    -1.340450     3.876318    -1.328859
 C    -0.775979     5.194662    -0.889016
 H    -1.580583     5.915468    -0.669768
 H    -0.165794     5.086532     0.017534
 H    -0.144964     5.640228    -1.673039
 C    -2.008672     3.759182    -2.553395
 H    -2.095566     4.633177    -3.205517
