  98
scf done:    -4801.659403
 C    -0.783077    -0.035865    -3.548419
 H    -1.307871    -0.846240    -4.063965
 H    -1.321551     0.917459    -3.551895
 C     0.623059    -0.049584    -3.465048
 H     1.193250    -0.875128    -3.902191
 H     1.171261     0.896614    -3.411501
 H    -0.215604     0.881415    -1.387418
Co    -0.200335    -0.554630    -1.683376
 C    -3.026303     1.172321    -1.211193
 O    -2.843220    -1.459955    -0.323486
 O    -1.765867     0.257445     1.049486
 C     1.884227    -0.996139     1.101316
 O     2.946394    -1.032367    -1.395904
 O     2.007023     1.181088    -0.462435
 P     1.597048    -0.423408    -0.620255
 P    -1.890010    -0.134848    -0.585199
 C    -0.379275    -2.299011    -1.841961
 O    -0.542554    -3.434176    -1.886941
 C    -2.561894     2.506749    -1.192753
 O    -1.322555     2.677958    -0.711099
 C    -0.752359     3.954235    -0.609950
 H     0.260889     3.801037    -0.219640
 H    -0.689246     4.446120    -1.594875
 H    -1.320254     4.591601     0.088256
 C    -4.259752     0.917490    -1.847115
 O    -4.609822    -0.366689    -2.008545
 C    -5.902414    -0.693018    -2.439748
 H    -5.973198    -1.786665    -2.395449
 H    -6.084305    -0.360945    -3.476107
 H    -6.670211    -0.259707    -1.776470
 C    -5.061155     1.974815    -2.300999
 H    -6.028790     1.776562    -2.759160
 C    -3.351596     3.563861    -1.655343
 H    -2.991183     4.590283    -1.606071
 C    -4.603545     3.281558    -2.188957
 H    -5.231537     4.100808    -2.546971
 C    -4.023390    -1.658126     0.316165
 C    -4.624249    -2.902460     0.100113
 H    -4.123067    -3.610563    -0.562746
 C    -4.643049    -0.727834     1.152262
 H    -4.172316     0.233475     1.338660
 C    -5.837630    -3.215915     0.703358
 H    -6.319459    -4.182342     0.543721
 C    -5.862387    -1.036721     1.752706
 H    -6.362194    -0.321463     2.408557
 C    -6.448417    -2.274029     1.523315
 F    -7.615870    -2.565994     2.101248
 C    -1.486946     1.406470     1.720897
 C    -0.196541     1.626694     2.206015
 H     0.581892     0.896021     1.992156
 C    -2.498046     2.331361     2.000052
 H    -3.504644     2.168917     1.612390
 C     0.087889     2.768337     2.949670
 H     1.089938     2.950376     3.343232
 C    -2.217386     3.477189     2.740012
 H    -2.992971     4.211995     2.963845
 C    -0.924721     3.684454     3.205974
 F    -0.652928     4.781896     3.916022
 C     2.999706    -0.539601     1.838862
 O     3.940833     0.097863     1.131406
 C     5.092261     0.591619     1.759169
 H     5.678096     1.087712     0.975381
 H     4.844953     1.332426     2.537763
 H     5.686783    -0.224847     2.202542
 C     0.934373    -1.801698     1.766869
 O    -0.008666    -2.371787     1.011515
 C    -1.051303    -3.098198     1.612299
 H    -1.678781    -3.459159     0.791029
 H    -1.657914    -2.453603     2.268247
 H    -0.663243    -3.957927     2.183660
 C     1.016537    -2.003787     3.152014
 H     0.259979    -2.587471     3.673045
 C     3.096876    -0.756735     3.216448
 H     3.950956    -0.388676     3.782910
 C     2.086689    -1.468714     3.855942
 H     2.149039    -1.630707     4.934706
 C     3.711951    -2.072674    -0.962007
 C     3.139965    -3.291388    -0.590217
 H     2.056393    -3.420244    -0.631573
 C     5.097232    -1.907317    -0.924245
 H     5.520202    -0.943917    -1.212783
 C     3.953472    -4.339970    -0.167715
 H     3.529303    -5.300082     0.130863
 C     5.913288    -2.956849    -0.513538
 H     6.999426    -2.853899    -0.478347
 C     5.329963    -4.160407    -0.133223
 F     6.111184    -5.164489     0.270025
 C     3.108899     1.936176    -0.669440
 C     3.306824     3.014132     0.199824
 H     2.601368     3.156395     1.020959
 C     3.990296     1.733813    -1.735521
 H     3.824457     0.902617    -2.419388
 C     4.384734     3.876005     0.022054
 H     4.552411     4.722887     0.690198
 C     5.076713     2.590003    -1.907451
 H     5.777488     2.449865    -2.732880
 C     5.265897     3.649265    -1.028787
 F     6.306363     4.468561    -1.200841
