  92
scf done:    -3953.866863
 C     0.477031     1.200720    -3.210437
 H     1.059151     2.121709    -3.323580
 H     0.976249     0.311239    -3.608262
 C    -0.934300     1.256741    -3.171981
 H    -1.435956     2.224605    -3.278227
 H    -1.527963     0.409653    -3.528562
 H    -0.365592    -0.529385    -1.642747
Co    -0.192255     0.920689    -1.324315
 O     1.592618     0.245858     1.192675
 C     2.669458    -0.977619    -1.031408
 C     2.910995     1.831088    -0.580058
 O    -2.102314     1.072495     1.256193
 C    -3.265422    -0.336245    -0.770927
 C    -1.187943    -1.408971     0.871992
 P    -1.640608     0.103937    -0.054138
 P     1.697569     0.469682    -0.474900
 C    -0.311005     2.589530    -0.810263
 O    -0.442022     3.672640    -0.450387
 C     2.529508    -0.357447     1.981111
 C     2.468706    -1.739227     2.168395
 H     1.684537    -2.301566     1.661192
 C     3.517602     0.396606     2.617488
 H     3.551683     1.475252     2.461349
 C     3.402140    -2.367096     2.987227
 H     3.349484    -3.449301     3.129448
 C     4.450326    -0.242619     3.433105
 H     5.223863     0.348632     3.929423
 C     4.399721    -1.623813     3.618827
 H     5.133394    -2.118827     4.259088
 C     3.987040    -1.192003    -0.601498
 H     4.485780    -0.461659     0.038228
 C     2.063734    -1.922610    -1.862973
 H     1.043659    -1.731365    -2.206416
 C     4.657492    -2.350100    -0.982317
 H     5.677602    -2.523967    -0.632149
 C     2.728167    -3.086569    -2.263051
 C     2.068282    -4.068135    -3.187946
 H     0.972497    -4.011653    -3.118613
 H     2.340116    -3.864836    -4.237165
 H     2.373788    -5.101507    -2.966727
 C     4.032223    -3.290786    -1.798873
 H     4.569676    -4.198580    -2.088274
 C     3.852308     1.906875    -1.613292
 H     3.962710     1.079449    -2.317801
 C     2.772254     2.907049     0.301896
 H     2.017206     2.854168     1.091859
 C     4.648971     3.042036    -1.736767
 H     5.387589     3.101425    -2.539962
 C     3.566095     4.052528     0.188452
 C     3.384178     5.193930     1.146242
 H     2.350960     5.573583     1.108681
 H     3.574519     4.879092     2.184628
 H     4.062171     6.027545     0.916320
 C     4.509652     4.102966    -0.843454
 H     5.139155     4.990396    -0.951905
 C    -3.349366     1.586530     1.455811
 C    -4.374142     0.793098     1.976455
 H    -4.173846    -0.254975     2.204853
 C    -3.582159     2.930739     1.158918
 H    -2.762150     3.530701     0.759957
 C    -5.635623     1.345154     2.182872
 H    -6.437036     0.719516     2.583409
 C    -4.846583     3.474536     1.374417
 H    -5.026336     4.526744     1.140341
 C    -5.878432     2.684988     1.881014
 H    -6.869914     3.113606     2.043179
 C    -3.874436     0.608347    -1.602755
 H    -3.345625     1.531875    -1.846379
 C    -3.941961    -1.521497    -0.464476
 H    -3.472660    -2.257001     0.193558
 C    -5.152703     0.370459    -2.099565
 H    -5.635765     1.115574    -2.736027
 C    -5.217503    -1.781643    -0.973116
 C    -5.931172    -3.063048    -0.652117
 H    -6.944460    -2.871043    -0.266353
 H    -6.041276    -3.692579    -1.550111
 H    -5.385760    -3.648533     0.101230
 C    -5.815461    -0.814021    -1.789794
 H    -6.818072    -0.993659    -2.188684
 C    -1.265901    -1.456167     2.266712
 H    -1.576565    -0.567189     2.816946
 C    -0.757316    -2.539304     0.171360
 H    -0.691597    -2.501121    -0.918716
 C    -0.935701    -2.632763     2.935648
 H    -0.994626    -2.669465     4.025990
 C    -0.413830    -3.724008     0.830739
 C     0.101220    -4.901224     0.055415
 H    -0.468095    -5.052757    -0.873855
 H     1.153944    -4.741114    -0.232584
 H     0.051608    -5.828233     0.643819
 C    -0.519609    -3.757385     2.226366
 H    -0.257009    -4.672992     2.763496
