  82
scf done:    -3423.172456
 C    -1.640831     3.366232    -0.644551
 H    -1.794953     4.052605     0.195262
 H    -0.921692     3.734321    -1.383099
 C    -2.713594     2.546469    -1.070688
 H    -3.675913     2.610499    -0.550195
 H    -2.808240     2.293640    -2.130534
 H    -0.623562     1.333579    -1.410178
Co    -1.313878     1.451218    -0.109464
 O     1.347297     0.017168    -0.580422
 C     1.724297     2.804834    -0.377158
 C     1.468542     1.000187     2.011963
 O    -1.244140    -1.870289     0.078443
 C    -3.771791    -0.890966    -0.233113
 C    -1.599035    -1.104695    -2.344758
 P    -1.980803    -0.514694    -0.624624
 P     0.789299     1.339538     0.302642
 C    -2.140654     1.608501     1.424261
 O    -2.780265     1.739457     2.372942
 C     2.562199    -0.511043    -0.890774
 C     3.320285    -1.206047     0.051845
 H     2.941882    -1.301414     1.069387
 C     2.970744    -0.447972    -2.236625
 C     2.113907     0.246896    -3.249615
 H     2.568171     0.201998    -4.248575
 H     1.112826    -0.207249    -3.300578
 H     1.953799     1.305208    -2.990710
 C     4.523617    -1.800921    -0.320423
 H     5.112280    -2.339730     0.425903
 C     4.180396    -1.055081    -2.583398
 H     4.511838    -1.005395    -3.624311
 C     4.962407    -1.719321    -1.639309
 H     5.904591    -2.183577    -1.938445
 H     1.183127     2.947835    -1.327810
 C     1.443064     4.021497     0.503918
 H     1.694871     4.945855    -0.039363
 H     0.386877     4.080360     0.799744
 H     2.056764     4.002314     1.416980
 C     3.212466     2.695190    -0.695514
 H     3.467741     1.804976    -1.282481
 H     3.513349     3.577100    -1.284752
 H     3.832481     2.686531     0.209386
 H     1.261467    -0.080209     2.106908
 C     2.960066     1.239557     2.236429
 H     3.260222     0.770387     3.187656
 H     3.598798     0.824696     1.448145
 H     3.181525     2.313557     2.324372
 C     0.668517     1.709840     3.099549
 H    -0.392502     1.442961     3.081981
 H     1.062232     1.416020     4.085578
 H     0.748390     2.804859     3.024694
 C    -0.670732    -1.973261     1.295735
 C    -1.196284    -1.365158     2.436492
 H    -2.110785    -0.777335     2.365590
 C     0.472397    -2.793098     1.377604
 C     0.953226    -3.509568     0.155057
 H     0.228596    -4.281820    -0.151347
 H     1.058536    -2.818519    -0.692708
 H     1.922350    -3.994725     0.331148
 C    -0.557153    -1.518634     3.666712
 H    -0.972080    -1.030709     4.551548
 C     1.094638    -2.924420     2.619918
 H     1.988530    -3.550536     2.693357
 C     0.599938    -2.285678     3.759857
 H     1.109260    -2.404302     4.718618
 H    -3.942688    -0.271342     0.664737
 C    -4.710059    -0.375050    -1.320406
 H    -5.751083    -0.409959    -0.962280
 H    -4.489551     0.663278    -1.601856
 H    -4.656225    -0.996268    -2.226914
 C    -4.071777    -2.338320     0.138816
 H    -3.434871    -2.695554     0.959271
 H    -5.121417    -2.420494     0.465097
 H    -3.934394    -3.020457    -0.711359
 H    -0.498044    -1.116909    -2.250809
 C    -2.061189    -2.519627    -2.669403
 H    -1.578868    -2.860644    -3.599764
 H    -1.795675    -3.225482    -1.871552
 H    -3.148359    -2.567502    -2.833707
 C    -1.953582    -0.116231    -3.447006
 H    -1.543896     0.880980    -3.235152
 H    -1.525989    -0.463019    -4.401472
 H    -3.039750    -0.021307    -3.590331
