  96
scf done:    -4452.888749
 C    -1.172254    -2.874602    -2.153856
 H    -1.726806    -3.647738    -1.612040
 H    -1.786842    -2.291154    -2.844407
 C     0.201801    -3.048567    -2.400215
 H     0.685168    -3.972896    -2.063804
 H     0.663330    -2.599869    -3.284752
 H    -0.205829    -0.695111    -2.034222
Co    -0.102292    -1.672832    -0.930928
 O    -1.715098     1.004298    -0.866507
 C    -3.369434    -1.131387    -0.836362
 C    -1.967867    -0.322092     1.610730
 O     2.093797    -0.470717     0.990255
 C     3.268789    -1.100586    -1.353340
 C     1.610391     1.217157    -1.204095
 P     1.666821    -0.531495    -0.645557
 P    -1.761632    -0.533342    -0.214800
 C     0.052174    -2.812071     0.406002
 O     0.136424    -3.559350     1.272703
 C    -2.471772     2.121463    -0.730590
 C    -2.079960     3.207241    -1.524005
 H    -1.228341     3.079836    -2.192761
 C    -3.577864     2.243192     0.111377
 H    -3.932753     1.387750     0.682747
 C    -2.759344     4.417456    -1.446898
 H    -2.462636     5.273450    -2.055983
 C    -4.258488     3.458453     0.189909
 H    -5.125275     3.573648     0.843465
 C    -3.839970     4.534280    -0.579425
 F    -4.492796     5.697070    -0.497170
 C    -4.044569    -0.509156    -1.881400
 H    -3.660102     0.428479    -2.285983
 C    -3.846843    -2.364135    -0.352229
 O    -3.110738    -2.910798     0.635246
 C    -3.423639    -4.183220     1.125475
 H    -4.406785    -4.196537     1.628302
 H    -2.641186    -4.433827     1.852292
 H    -3.423104    -4.938971     0.320791
 C    -5.203836    -1.074263    -2.420104
 H    -5.726725    -0.570521    -3.235499
 C    -5.001938    -2.934725    -0.883917
 H    -5.376684    -3.886984    -0.506937
 C    -5.679022    -2.279110    -1.916441
 H    -6.583130    -2.730362    -2.332349
 C    -0.769833    -0.268027     2.331179
 H     0.175893    -0.296500     1.789602
 C    -3.175233    -0.328815     2.346771
 O    -4.329507    -0.378590     1.653953
 C    -5.545228    -0.599466     2.310369
 H    -5.510484    -1.515836     2.924272
 H    -6.299533    -0.723058     1.522752
 H    -5.829346     0.251766     2.953472
 C    -0.743700    -0.188459     3.721923
 H     0.214974    -0.145569     4.242740
 C    -3.153517    -0.268762     3.744237
 H    -4.087461    -0.275539     4.306296
 C    -1.941666    -0.193037     4.426675
 H    -1.944420    -0.145797     5.518585
 C     3.286042    -0.139751     1.556753
 C     3.479657     1.138236     2.085694
 H     2.673380     1.864326     1.992795
 C     4.293974    -1.100471     1.664445
 H     4.121654    -2.099042     1.260322
 C     4.682717     1.462154     2.705101
 H     4.857924     2.453650     3.127167
 C     5.503700    -0.777944     2.275459
 H     6.307588    -1.510674     2.365784
 C     5.684701     0.501408     2.785148
 F     6.845005     0.815453     3.368501
 C     3.339997    -2.431040    -1.769153
 H     2.425792    -3.021282    -1.716113
 C     4.453098    -0.324433    -1.383446
 O     4.373823     0.931261    -0.925400
 C     5.519303     1.731382    -0.848315
 H     6.288893     1.274671    -0.203364
 H     5.198705     2.680659    -0.402249
 H     5.945996     1.928929    -1.846854
 C     4.526961    -2.999094    -2.227877
 H     4.549369    -4.043221    -2.545564
 C     5.643599    -0.886893    -1.857960
 H     6.556783    -0.292619    -1.886417
 C     5.674660    -2.215484    -2.276715
 H     6.615790    -2.637531    -2.638370
 C     1.991708     1.482725    -2.520715
 H     2.336229     0.654909    -3.146767
 C     1.126811     2.279449    -0.418964
 O     0.663308     1.983523     0.811641
 C     0.048610     2.983692     1.581576
 H     0.769374     3.763587     1.885636
 H    -0.341121     2.482993     2.476668
 H    -0.789378     3.453145     1.041228
 C     1.966098     2.771786    -3.045695
 H     2.274788     2.949890    -4.077741
 C     1.141454     3.584535    -0.927017
 H     0.792525     4.414025    -0.312565
 C     1.562240     3.826654    -2.232067
 H     1.556846     4.850177    -2.614979
