 106
scf done:    -3737.447368
 C    -0.860782    -2.257257    -2.936042
 H    -1.312780    -3.239663    -2.759746
 H    -1.512638    -1.565094    -3.478477
 C     0.543245    -2.151154    -3.092211
 H     1.163247    -3.052825    -3.034477
 H     0.950103    -1.377999    -3.750939
 H    -0.195926    -0.122950    -2.001651
Co    -0.037800    -1.427569    -1.304163
 O    -1.262152     0.965108     0.271928
 C    -3.186475    -0.249859    -1.338044
 C    -2.352490    -1.335902     1.208616
 O     1.475473    -0.649144     1.277173
 C     3.321220    -1.135121    -0.694184
 C     1.840061     1.318565    -0.661825
 P     1.631262    -0.482688    -0.397468
 P    -1.689660    -0.564300    -0.318353
 C     0.190017    -2.916216    -0.407367
 O     0.381253    -3.882744     0.185514
 C    -2.083702     2.026175     0.506725
 C    -2.690244     2.166732     1.759198
 H    -2.495956     1.411509     2.522473
 C    -2.257592     2.998281    -0.492723
 C    -1.556206     2.903060    -1.815980
 H    -0.848500     3.738829    -1.939860
 H    -0.988717     1.968254    -1.909545
 H    -2.273199     2.960913    -2.649609
 C    -3.526131     3.247983     2.015721
 H    -4.004150     3.346298     2.993088
 C    -3.106721     4.074702    -0.207966
 H    -3.264028     4.834349    -0.979216
 C    -3.746333     4.201665     1.022014
 H    -4.405607     5.051935     1.209976
 H    -3.329570    -1.198739    -1.883066
 H    -2.860389     0.469880    -2.104411
 C    -4.488521     0.175804    -0.671967
 H    -4.814211    -0.613131     0.026088
 H    -4.338118     1.078524    -0.059775
 C    -5.630635     0.450510    -1.655487
 H    -5.760190    -0.450855    -2.284483
 C    -6.928740     0.684384    -0.891062
 H    -7.181228    -0.175787    -0.251361
 H    -7.774493     0.855999    -1.574795
 H    -6.840291     1.569827    -0.239544
 C    -5.328273     1.629693    -2.574546
 H    -6.173247     1.830893    -3.250975
 H    -4.442784     1.451987    -3.203274
 H    -5.143279     2.542413    -1.983504
 H    -3.086852    -0.665296     1.683394
 H    -1.478374    -1.400904     1.876281
 C    -2.961034    -2.709900     0.958629
 H    -3.886995    -2.595403     0.369345
 H    -2.282500    -3.314907     0.333272
 C    -3.283784    -3.503415     2.228738
 H    -3.936114    -2.871846     2.861589
 C    -4.057083    -4.767695     1.871653
 H    -4.983676    -4.534421     1.323772
 H    -4.332107    -5.338576     2.771949
 H    -3.448442    -5.428413     1.232048
 C    -2.029764    -3.843182     3.027556
 H    -2.280376    -4.434885     3.921469
 H    -1.495138    -2.944380     3.369393
 H    -1.326376    -4.431970     2.416422
 C     2.343598    -0.297218     2.269706
 C     3.423441    -1.131747     2.573331
 H     3.553803    -2.049250     1.997887
 C     2.091000     0.855857     3.034183
 C     0.910320     1.732750     2.747232
 H     1.209924     2.635444     2.188737
 H     0.164068     1.209618     2.137634
 H     0.439491     2.076300     3.679964
 C     4.298577    -0.803537     3.604004
 H     5.142093    -1.460241     3.829430
 C     2.983322     1.158398     4.069131
 H     2.799100     2.053090     4.670980
 C     4.084212     0.353530     4.350916
 H     4.763238     0.619832     5.163968
 H     3.290065    -2.209699    -0.447648
 H     4.013698    -0.656486     0.015249
 C     3.782126    -0.942079    -2.132871
 H     3.049942    -1.413267    -2.805524
 H     3.782832     0.132749    -2.390263
 C     5.172938    -1.509716    -2.428373
 H     5.160291    -2.578719    -2.143134
 C     5.466713    -1.426771    -3.921722
 H     4.700635    -1.953204    -4.511874
 H     6.445144    -1.868960    -4.165348
 H     5.483402    -0.376716    -4.259059
 C     6.265681    -0.819233    -1.619389
 H     7.256924    -1.237500    -1.853039
 H     6.112237    -0.923926    -0.534775
 H     6.298126     0.259478    -1.849566
 H     0.922976     1.758197    -0.239842
 H     1.745425     1.434709    -1.753947
 C     3.092255     2.003018    -0.132962
 H     3.271212     1.712230     0.913317
 H     3.978531     1.659171    -0.695319
 C     3.035075     3.532000    -0.203453
 H     2.140485     3.852962     0.363778
 C     4.259679     4.135213     0.473860
 H     4.349748     3.791367     1.516210
 H     4.216393     5.235421     0.481122
 H     5.182906     3.841875    -0.053510
 C     2.886300     4.042982    -1.631868
 H     2.862782     5.143401    -1.659468
 H     1.961430     3.681311    -2.106248
 H     3.734352     3.712891    -2.255797
