  90
scf done:    -6013.983127
 C     0.159364    -1.606750    -3.680130
 H     1.001255    -1.445958    -4.360542
 H     0.157588    -2.578401    -3.177102
 C    -1.054580    -0.930857    -3.883861
 H    -1.163426    -0.240006    -4.725207
 H    -1.996381    -1.378559    -3.554336
 H    -0.621751    -1.079997    -1.406931
Co    -0.037387    -0.087548    -2.340671
 O     2.019237    -2.031034    -0.779266
 O     3.048257    -0.048006    -1.838161
 O     1.631760     0.241650     0.317580
 O    -1.606012     2.550460    -1.882008
 O    -3.129721     0.637515    -1.582534
 O    -1.416859     1.111149     0.247682
 P    -1.519012     0.988382    -1.397022
 P     1.613417    -0.467309    -1.171101
 C     0.676419     1.229235    -3.277923
 O     1.147976     2.106484    -3.837885
 C     1.102477    -3.000365    -0.473051
 C     0.087855    -2.773118     0.456295
 H     0.015604    -1.795749     0.936741
 C     1.246746    -4.239321    -1.115950
 C     2.356507    -4.447917    -2.098983
 H     2.348861    -3.670464    -2.878046
 H     3.339835    -4.384565    -1.606088
 H     2.277352    -5.430834    -2.582057
 C    -0.817186    -3.790311     0.754111
 H    -1.614210    -3.612813     1.479957
 C     0.324865    -5.240113    -0.798031
 H     0.415954    -6.211605    -1.291055
 C    -0.701060    -5.025836     0.123152
 H    -1.405621    -5.828694     0.350962
 C     4.277635     0.140075    -1.258315
 C     4.918358    -0.865541    -0.535678
 H     4.440108    -1.838988    -0.428773
 C     4.878882     1.385066    -1.429798
 H     4.360904     2.142224    -2.021477
 C     6.133859    -0.594601     0.083231
 H     6.629984    -1.355256     0.687585
 C     6.102975     1.652092    -0.825600
 H     6.579134     2.627504    -0.936370
 C     6.713892     0.666390    -0.051954
Cl     8.200538     1.015595     0.764301
 C     2.591974     0.160022     1.299951
 C     3.361980     1.292404     1.561539
 H     3.183353     2.199033     0.981945
 C     2.782032    -1.006982     2.037672
 H     2.162952    -1.883929     1.850647
 C     4.372352     1.242221     2.513524
 H     5.006672     2.109803     2.700082
 C     3.789182    -1.058033     2.997712
 H     3.960288    -1.970201     3.571328
 C     4.592233     0.058532     3.218199
Cl     5.882582    -0.024858     4.369538
 C    -2.270304     3.562761    -1.233322
 C    -3.633412     3.750270    -1.441977
 H    -4.159777     3.070608    -2.113029
 C    -1.519555     4.397669    -0.392704
 C    -0.053732     4.152299    -0.206280
 H     0.123514     3.175591     0.272016
 H     0.465559     4.129740    -1.177038
 H     0.400430     4.933579     0.417738
 C    -4.288462     4.786214    -0.779188
 H    -5.359299     4.937926    -0.932272
 C    -2.202805     5.431337     0.255573
 H    -1.644175     6.095388     0.920441
 C    -3.572741     5.624074     0.074625
 H    -4.080237     6.437492     0.597856
 C    -3.828396    -0.410365    -1.042538
 C    -5.050681    -0.111406    -0.438460
 H    -5.389092     0.925432    -0.418777
 C    -3.367074    -1.725961    -1.078805
 H    -2.412070    -1.959599    -1.548873
 C    -5.786663    -1.114163     0.178947
 H    -6.722548    -0.882793     0.689560
 C    -4.104484    -2.733450    -0.462132
 H    -3.738405    -3.761096    -0.469201
 C    -5.301206    -2.422597     0.177609
Cl    -6.186854    -3.668147     0.995329
 C    -2.395696     0.944029     1.198966
 C    -2.547159    -0.311650     1.787632
 H    -1.898214    -1.126468     1.470756
 C    -3.209925     2.003597     1.590626
 H    -3.070473     2.990788     1.152346
 C    -3.553003    -0.532789     2.719242
 H    -3.704498    -1.521771     3.153807
 C    -4.217077     1.788575     2.528491
 H    -4.872730     2.607198     2.828973
 C    -4.397582     0.519254     3.072758
Cl    -5.693971     0.237024     4.186718
