  98
scf done:    -4032.436718
 C    -0.070828    -3.195412    -1.707234
 H    -0.514179    -4.014103    -1.130773
 H    -0.653544    -2.908638    -2.587224
 C     1.320402    -2.977538    -1.681280
 H     1.961781    -3.648075    -1.099244
 H     1.821515    -2.514549    -2.536552
 H     0.254096    -0.798071    -1.821187
Co     0.362624    -1.585488    -0.561573
 O    -2.143660     0.268409    -1.264307
 C    -2.909048    -2.189576    -0.430325
 C    -2.052791    -0.220224     1.436029
 O     2.194320     0.481730     1.171721
 C     3.215333     0.062676    -1.313264
 C     0.945413     1.716459    -0.805925
 P     1.637190     0.075606    -0.392432
 P    -1.620531    -0.919680    -0.193057
 C     0.620835    -2.416703     0.954798
 O     0.797821    -2.953532     1.956369
 C    -3.086147     1.214957    -0.971751
 C    -4.394512     1.074709    -1.429347
 H    -4.672710     0.184597    -1.995028
 C    -2.726961     2.347500    -0.236855
 H    -1.703431     2.443000     0.126429
 C    -5.335227     2.066131    -1.149948
 H    -6.359798     1.945020    -1.512786
 C    -3.675644     3.324569     0.035543
 H    -3.380495     4.200459     0.620785
 C    -4.998399     3.205395    -0.413686
 C    -6.009240     4.276020    -0.119083
 H    -7.022581     3.964399    -0.409295
 H    -5.778453     5.205868    -0.664714
 H    -6.026616     4.527943     0.952829
 C    -3.491189    -2.375185    -1.687132
 H    -3.243483    -1.687280    -2.499019
 C    -3.204906    -3.102799     0.589087
 H    -2.744932    -2.988226     1.574560
 C    -4.371261    -3.431507    -1.909536
 H    -4.818992    -3.558407    -2.899319
 C    -4.081410    -4.157407     0.358053
 H    -4.302016    -4.858232     1.168359
 C    -4.686300    -4.338987    -0.892828
 C    -5.652693    -5.463552    -1.123167
 H    -5.302980    -6.396289    -0.655689
 H    -6.638753    -5.232442    -0.686594
 H    -5.802707    -5.653524    -2.195357
 C    -3.382363    -0.078456     1.861454
 H    -4.196816    -0.453603     1.237902
 C    -1.030215     0.278208     2.248338
 H     0.013336     0.184414     1.939785
 C    -3.673403     0.552344     3.063265
 H    -4.716454     0.662765     3.372836
 C    -1.330666     0.909501     3.453255
 H    -0.515608     1.294621     4.071992
 C    -2.652986     1.059701     3.880725
 C    -2.979291     1.723946     5.185370
 H    -2.117558     2.277284     5.583962
 H    -3.820478     2.425481     5.077953
 H    -3.275011     0.978316     5.941908
 C     3.445270     0.189452     1.633401
 C     3.666204    -0.973361     2.369544
 H     2.832251    -1.648758     2.565512
 C     4.506527     1.062375     1.382329
 H     4.324911     1.966221     0.798459
 C     4.947471    -1.261692     2.836426
 H     5.110376    -2.179480     3.408475
 C     5.778980     0.758989     1.851603
 H     6.603372     1.445060     1.636974
 C     6.026874    -0.409203     2.584554
 C     7.403645    -0.717510     3.098613
 H     7.657829    -0.084364     3.965070
 H     8.170295    -0.535382     2.329934
 H     7.487971    -1.765294     3.420304
 C     4.012748    -1.085772    -1.223734
 H     3.643283    -1.951633    -0.670796
 C     3.701174     1.165163    -2.021111
 H     3.099597     2.073743    -2.096208
 C     5.271820    -1.118781    -1.808184
 H     5.886837    -2.017494    -1.708894
 C     4.957244     1.117414    -2.622219
 H     5.321310     1.988419    -3.174372
 C     5.766287    -0.018767    -2.521836
 C     7.116506    -0.074041    -3.173164
 H     7.460284     0.924465    -3.477642
 H     7.869305    -0.505630    -2.496177
 H     7.092420    -0.707376    -4.075397
 C     1.057880     2.803000     0.066852
 H     1.566605     2.668608     1.022495
 C     0.287450     1.903080    -2.028560
 H     0.168896     1.061202    -2.713748
 C     0.515447     4.041724    -0.273924
 H     0.602303     4.875593     0.428405
 C    -0.237790     3.143707    -2.365855
 H    -0.756369     3.263401    -3.320807
 C    -0.145893     4.233903    -1.490323
 C    -0.796381     5.541484    -1.827806
 H    -0.403462     6.362689    -1.211733
 H    -0.653562     5.803628    -2.886730
 H    -1.883944     5.480466    -1.652082
