  70
scf done:    -3266.066271
 C     3.259290     2.080435    -1.080999
 H     4.203982     2.016933    -0.531002
 H     3.347196     1.805793    -2.137189
 C     2.297235     3.040251    -0.687808
 H     2.508070     3.698769     0.161946
 H     1.652422     3.492461    -1.447259
 H     1.029794     1.146228    -1.487725
Co     1.692679     1.195845    -0.161325
 O     0.924076    -2.023587    -0.263232
 C     2.076005    -1.218611    -2.450521
 C     3.574216    -1.669735    -0.028874
 O    -1.240073     0.225797    -0.417003
 C    -1.003773     1.628662     1.941651
 C    -1.082904     2.997826    -0.574927
 P    -0.360813     1.503744     0.223876
 P     2.056782    -0.833249    -0.659737
 C     2.366386     1.178869     1.452376
 O     2.824974     1.137470     2.507625
 C     0.208655    -2.124107     0.881432
 C     0.683040    -1.690266     2.120056
 H     1.670718    -1.238509     2.202213
 C    -1.056964    -2.731071     0.770129
 C    -1.543377    -3.179297    -0.571186
 H    -1.457092    -2.361997    -1.302191
 H    -0.936604    -4.014763    -0.956562
 H    -2.592687    -3.500330    -0.526227
 C    -0.104293    -1.841508     3.262179
 H     0.278443    -1.496010     4.225536
 C    -1.818415    -2.878679     1.929089
 H    -2.805821    -3.341506     1.848011
 C    -1.359830    -2.434277     3.170926
 H    -1.979294    -2.559498     4.061733
 H     2.804537    -0.522381    -2.897248
 C     2.339488    -2.659910    -2.848737
 H     1.631175    -3.338237    -2.351789
 H     3.358507    -2.981864    -2.585739
 H     1.087433    -0.879460    -2.798984
 H     2.227708    -2.787822    -3.936348
 H     3.473468    -2.744245    -0.250267
 C     4.872565    -1.102213    -0.579786
 H     4.975002    -0.034993    -0.339978
 H     4.933291    -1.203188    -1.674488
 H     3.552958    -1.573186     1.068450
 H     5.738766    -1.629188    -0.152066
 C    -2.586721     0.075992    -0.562735
 C    -3.407656    -0.210514     0.528542
 H    -2.962199    -0.303588     1.518407
 C    -3.107432     0.113372    -1.868642
 C    -2.196359     0.355936    -3.032514
 H    -1.788109     1.378682    -3.024411
 H    -1.329864    -0.322360    -3.001025
 H    -2.724488     0.210285    -3.984485
 C    -4.773181    -0.410341     0.337656
 H    -5.411588    -0.629807     1.196738
 C    -4.479003    -0.096468    -2.032427
 H    -4.897462    -0.068169    -3.042371
 C    -5.314353    -0.345169    -0.943919
 H    -6.383656    -0.502978    -1.100750
 H    -0.740540     0.676586     2.429692
 C    -0.424470     2.813858     2.701140
 H    -0.714146     3.774466     2.247590
 H     0.673588     2.780141     2.737276
 H    -2.102263     1.687535     1.913873
 H    -0.787897     2.819633     3.739843
 H    -0.878946     2.874223    -1.650296
 C    -2.535588     3.367741    -0.315175
 H    -2.729364     3.542724     0.753737
 H    -3.233919     2.591627    -0.656661
 H    -0.412231     3.811407    -0.251494
 H    -2.787938     4.299241    -0.845491
