  92
scf done:    -4000.916601
 C     1.511935    -1.962775    -2.112898
 H     0.690481    -2.112900    -2.820533
 H     2.469010    -1.699996    -2.574045
 C     1.483471    -2.576527    -0.852753
 H     0.631292    -3.197269    -0.563360
 H     2.422376    -2.825779    -0.347834
 H     0.693534    -0.527183     0.770839
Co     0.998529    -0.587187    -0.690892
 O     2.885255     1.263552     1.181556
 O     3.423547    -1.115759     1.387820
 O     4.053282     0.014283    -0.728704
 O    -1.598256    -2.297213    -0.204597
 O    -1.966438     0.142144     0.390325
 O    -1.916818    -0.513168    -1.966822
 P    -1.065000    -0.778641    -0.605489
 P     2.779913    -0.129848     0.264901
 C     0.980819     0.680534    -1.888487
 O     0.979072     1.442065    -2.751006
 C     2.129873     2.373714     0.937248
 C     1.304118     2.854250     1.953863
 H     1.297380     2.340778     2.917184
 C     2.180976     3.029586    -0.292857
 H     2.849604     2.659969    -1.071444
 C     0.498475     3.967134     1.729655
 H    -0.160614     4.360786     2.504988
 C     1.359297     4.127522    -0.531269
 H     1.357017     4.632408    -1.498503
 C     0.519665     4.574876     0.480068
 F    -0.291531     5.610163     0.247762
 C     3.251955    -1.020545     2.798274
 H     3.933619    -1.780322     3.211149
 H     3.597383    -0.031030     3.136414
 C     1.833785    -1.275474     3.268260
 H     1.833077    -1.190434     4.369620
 H     1.179914    -0.465303     2.901711
 C     1.267225    -2.620200     2.838840
 H     1.878715    -3.429339     3.275576
 H     1.368260    -2.705607     1.747165
 C    -0.192235    -2.800699     3.217236
 H    -0.352309    -2.696232     4.302888
 H    -0.815330    -2.048915     2.708744
 H    -0.569245    -3.788294     2.913098
 C     5.399263     0.158552    -0.276885
 H     5.865444     0.891709    -0.954718
 H     5.412469     0.585447     0.738821
 C     6.137524    -1.162780    -0.324407
 H     7.169640    -0.987075     0.028096
 H     5.668544    -1.848710     0.399947
 C     6.158733    -1.803229    -1.705031
 H     6.642140    -1.113895    -2.420227
 H     5.119984    -1.920480    -2.054921
 C     6.865223    -3.148427    -1.725335
 H     7.915657    -3.057646    -1.403972
 H     6.374869    -3.864429    -1.046287
 H     6.862906    -3.592072    -2.732360
 C    -2.935844    -2.601508    -0.190536
 C    -3.553800    -3.061008    -1.353668
 H    -2.962507    -3.148985    -2.265836
 C    -3.667073    -2.466593     0.989547
 H    -3.166267    -2.107573     1.889436
 C    -4.906409    -3.390079    -1.337607
 H    -5.414877    -3.753753    -2.232281
 C    -5.019836    -2.794970     1.010999
 H    -5.614642    -2.701878     1.921302
 C    -5.623276    -3.251212    -0.154873
 F    -6.919228    -3.564188    -0.137757
 C    -1.555212     0.739648     1.604871
 H    -1.701156     0.018580     2.429404
 H    -0.481688     0.979074     1.549009
 C    -2.377613     1.986993     1.834890
 H    -2.029687     2.453572     2.772835
 H    -2.151788     2.710082     1.032222
 C    -3.877386     1.736579     1.901266
 H    -4.094304     1.048088     2.737547
 H    -4.187988     1.203326     0.988093
 C    -4.684991     3.014196     2.056173
 H    -4.409281     3.557297     2.974681
 H    -4.512501     3.697195     1.208450
 H    -5.764997     2.808859     2.102801
 C    -2.934043     0.471609    -2.124751
 H    -3.451088     0.208297    -3.060231
 H    -3.663834     0.388320    -1.304371
 C    -2.365548     1.875627    -2.196081
 H    -1.708532     2.035046    -1.325797
 H    -1.719737     1.964281    -3.084975
 C    -3.439143     2.952976    -2.206375
 H    -4.077396     2.835117    -1.312115
 H    -4.108222     2.805520    -3.072843
 C    -2.860940     4.359241    -2.237329
 H    -2.215846     4.550833    -1.364816
 H    -2.244922     4.515342    -3.137281
 H    -3.652771     5.123481    -2.239280
