  86
scf done:    -5713.184287
 C     0.549540     2.567982    -0.909440
 H    -0.237546     3.273837    -0.623984
 H     1.561283     2.984875    -0.875197
 C     0.255915     1.512964    -1.800417
 H    -0.747386     1.427076    -2.233052
 H     1.038936     1.132001    -2.465453
 H     0.195983    -0.659035     0.223061
Co     0.404504     0.821627     0.106756
 O     2.441096    -1.129118    -1.521813
 C     3.645966     1.017368    -0.702748
 C     2.978861    -1.029888     1.147688
 O    -1.967528    -0.099706     1.855038
 C    -2.633264     2.118128     0.420319
 C    -2.629325    -0.450712    -0.812815
 P    -1.666565     0.570330     0.349884
 P     2.261581    -0.071321    -0.232606
 C     0.716963     1.586209     1.638266
 O     0.930873     2.153280     2.617858
 C     1.627979    -2.182433    -1.813938
 C     1.144159    -3.050095    -0.833216
 H     1.402781    -2.884773     0.212194
 C     1.330249    -2.387627    -3.173106
 C     1.866237    -1.450113    -4.210330
 H     1.501677    -1.718678    -5.210832
 H     1.569639    -0.410627    -4.001553
 H     2.967641    -1.469264    -4.231510
 C     0.347264    -4.133655    -1.197847
 H    -0.030514    -4.805761    -0.424265
 C     0.541708    -3.491044    -3.509255
 H     0.310920    -3.666567    -4.563869
 C     0.045327    -4.359555    -2.537319
 H    -0.575916    -5.209269    -2.828183
 C     4.243796     0.993412    -1.965172
 H     3.925484     0.249587    -2.696219
 C     4.055716     1.978884     0.230844
 H     3.586332     2.019556     1.217954
 C     5.244832     1.906583    -2.291048
 H     5.716224     1.892280    -3.275030
 C     5.057437     2.889336    -0.081195
 H     5.383450     3.635430     0.644960
 C     5.647076     2.847542    -1.346329
Cl     6.891143     3.982226    -1.744310
 C     2.211612    -1.307658     2.282910
 H     1.186984    -0.930918     2.338981
 C     4.283385    -1.531005     1.060456
 H     4.889232    -1.320907     0.175340
 C     2.736254    -2.068221     3.323763
 H     2.143757    -2.285138     4.213875
 C     4.817206    -2.295330     2.091215
 H     5.832713    -2.689871     2.031643
 C     4.037594    -2.557754     3.219659
Cl     4.698006    -3.505065     4.506470
 C    -3.122706    -0.755091     2.199652
 C    -4.216689    -0.041923     2.688095
 H    -4.146762     1.042778     2.778536
 C    -3.151933    -2.153997     2.082759
 C    -1.951858    -2.896878     1.583114
 H    -1.790075    -2.722744     0.507663
 H    -1.037215    -2.561291     2.094528
 H    -2.067481    -3.978575     1.736157
 C    -5.382148    -0.719153     3.040410
 H    -6.240760    -0.159801     3.418928
 C    -4.332758    -2.807630     2.446997
 H    -4.376894    -3.896768     2.361501
 C    -5.442984    -2.105114     2.912387
 H    -6.352908    -2.643709     3.186240
 C    -2.565506     2.896741     1.584392
 H    -2.040683     2.512529     2.462728
 C    -3.278125     2.640194    -0.706131
 H    -3.332651     2.055780    -1.627666
 C    -3.156607     4.153133     1.636327
 H    -3.112735     4.756452     2.544414
 C    -3.866021     3.902676    -0.669484
 H    -4.372901     4.309515    -1.545834
 C    -3.806669     4.649855     0.504776
Cl    -4.542205     6.214334     0.561622
 C    -4.029477    -0.529425    -0.754123
 H    -4.585350     0.053911    -0.018103
 C    -1.945718    -1.200076    -1.776154
 H    -0.855820    -1.143210    -1.821240
 C    -4.729807    -1.355271    -1.625433
 H    -5.816849    -1.429734    -1.572947
 C    -2.637481    -2.017839    -2.663777
 H    -2.100430    -2.600004    -3.412082
 C    -4.025712    -2.095504    -2.576100
Cl    -4.891431    -3.123954    -3.665183
