 102
scf done:    -4333.085787
 C     0.560336    -3.123892    -1.696268
 H     1.032716    -2.812568    -2.632382
 H     1.171885    -3.809197    -1.099798
 C    -0.843435    -3.153364    -1.583099
 H    -1.471954    -2.867304    -2.430910
 H    -1.324116    -3.860509    -0.898176
 H    -0.241433    -0.874217    -1.947090
Co    -0.093361    -1.531858    -0.631474
 O    -2.242870     0.822774    -1.319376
 C    -3.374528    -1.464965    -0.616184
 C    -2.212313     0.290312     1.364321
 O     1.966651     0.158434     1.050544
 C     3.177287    -1.336153    -1.034366
 C     1.874452     1.163509    -1.500359
 P     1.696931    -0.381819    -0.522563
 P    -1.887901    -0.460533    -0.272114
 C     0.033703    -2.345887     0.919738
 O     0.092537    -2.925721     1.910546
 C    -2.318661     2.141309    -0.990859
 C    -1.361855     2.749485    -0.178426
 H    -0.540747     2.152496     0.213396
 C    -3.371698     2.890130    -1.544448
 C    -4.380629     2.229768    -2.430722
 H    -5.165263     2.937081    -2.733061
 H    -3.909267     1.830092    -3.343128
 H    -4.847794     1.374769    -1.919943
 C    -1.453489     4.106243     0.118046
 H    -0.698542     4.566883     0.759140
 C    -3.436227     4.252229    -1.238037
 H    -4.252098     4.844327    -1.662692
 C    -2.495431     4.863658    -0.409423
 H    -2.575234     5.929396    -0.183705
 C    -4.083635    -1.354082    -1.808360
 H    -3.792568    -0.579361    -2.518101
 C    -3.716207    -2.485751     0.289210
 O    -2.948207    -2.559085     1.393497
 C    -3.163776    -3.570887     2.334695
 H    -4.153973    -3.476422     2.813666
 H    -2.380076    -3.456460     3.093289
 H    -3.077961    -4.573515     1.880513
 C    -5.145446    -2.214270    -2.094073
 H    -5.693380    -2.112816    -3.033285
 C    -4.784247    -3.342905     0.015629
 H    -5.063017    -4.124502     0.723046
 C    -5.495951    -3.199200    -1.176696
 H    -6.328091    -3.875735    -1.386230
 C    -1.168983     0.325798     2.288750
 H    -0.198961    -0.086037     2.002439
 C    -3.445943     0.883859     1.702296
 O    -4.407060     0.850001     0.764423
 C    -5.621690     1.505632     0.994207
 H    -6.152951     1.089038     1.867277
 H    -6.234707     1.345422     0.098629
 H    -5.472628     2.589573     1.139226
 C    -1.330170     0.916810     3.540770
 H    -0.498435     0.935052     4.247810
 C    -3.610040     1.483701     2.955002
 H    -4.556141     1.953232     3.224023
 C    -2.554065     1.492719     3.865616
 H    -2.697103     1.967484     4.839687
 C     3.022812     0.730305     1.697132
 C     4.141316    -0.027703     2.041022
 H     4.167596    -1.074141     1.745760
 C     2.913309     2.074913     2.095780
 C     1.699219     2.881124     1.750585
 H     1.578950     2.981256     0.661021
 H     0.782178     2.406193     2.131353
 H     1.766760     3.890437     2.179565
 C     5.184287     0.550472     2.760986
 H     6.057222    -0.052292     3.023784
 C     3.971742     2.627287     2.823133
 H     3.897070     3.671623     3.140005
 C     5.105010     1.884683     3.152718
 H     5.915394     2.345096     3.722467
 C     3.794915    -1.082657    -2.261212
 H     3.486345    -0.209015    -2.838783
 C     3.557811    -2.495157    -0.327499
 O     2.913500    -2.721301     0.834767
 C     3.137797    -3.912570     1.537695
 H     2.939395    -4.796434     0.907149
 H     2.434067    -3.908098     2.378275
 H     4.170612    -3.969744     1.923482
 C     4.781585    -1.924407    -2.771274
 H     5.246485    -1.699554    -3.733272
 C     4.556608    -3.336297    -0.825182
 H     4.859041    -4.222998    -0.268015
 C     5.165380    -3.046482    -2.045211
 H     5.941980    -3.713221    -2.427654
 C     0.788605     1.610047    -2.253473
 H    -0.107520     0.987546    -2.283556
 C     3.037923     1.968304    -1.456910
 O     4.072370     1.484895    -0.755128
 C     5.224645     2.257735    -0.568497
 H     5.741091     2.452642    -1.524398
 H     5.879462     1.674214     0.089616
 H     4.990653     3.215752    -0.074534
 C     0.819200     2.826951    -2.933688
 H    -0.056721     3.158951    -3.493597
 C     3.072572     3.190989    -2.133670
 H     3.965003     3.815623    -2.095154
 C     1.960858     3.615033    -2.862958
 H     1.998971     4.577176    -3.380013
