  96
scf done:    -5173.462365
 C    -0.076646    -3.512168    -1.344112
 H    -0.492468    -4.265821    -0.667319
 H    -0.680103    -3.341712    -2.240172
 C     1.310335    -3.267442    -1.372289
 H     1.974809    -3.856412    -0.730650
 H     1.786054    -2.899135    -2.286253
 H     0.193900    -1.134965    -1.743754
Co     0.342324    -1.772528    -0.404108
 O    -2.197122    -0.059224    -1.283523
 C    -2.935105    -2.402315    -0.159731
 C    -2.069562    -0.230903     1.456905
 O     2.143573     0.516759     1.054390
 C     3.151195    -0.148357    -1.365321
 C     0.843379     1.494901    -1.050047
 P     1.569133    -0.074371    -0.468623
 P    -1.651971    -1.111693    -0.078244
 C     0.675564    -2.400969     1.192261
 O     0.922864    -2.792916     2.245075
 C    -3.147325     0.898764    -1.092774
 C    -2.799116     2.109624    -0.488859
 H    -1.774899     2.256683    -0.145913
 C    -4.456957     0.690981    -1.527859
 H    -4.723363    -0.259203    -1.992027
 C    -3.751289     3.106560    -0.319574
 H    -3.486076     4.052455     0.155293
 C    -5.415333     1.688571    -1.361841
 H    -6.441684     1.535974    -1.699340
 C    -5.058333     2.890988    -0.755558
Cl    -6.250320     4.133737    -0.541942
 C    -3.243209    -3.182267     0.965795
 H    -2.795364    -2.942822     1.934107
 C    -3.506962    -2.748868    -1.384655
 H    -3.254397    -2.169118    -2.275795
 C    -4.115275    -4.254703     0.869463
 H    -4.366960    -4.862756     1.740352
 C    -4.389638    -3.822810    -1.494956
 H    -4.821722    -4.059959    -2.467420
 C    -4.700694    -4.583654    -0.362288
 O    -5.537979    -5.638145    -0.360262
 C    -6.142583    -6.023576    -1.562673
 H    -5.396260    -6.313700    -2.323190
 H    -6.771948    -6.892909    -1.334139
 H    -6.779126    -5.222253    -1.978057
 C    -3.397003    -0.042511     1.884765
 H    -4.218465    -0.494895     1.324736
 C    -1.043030     0.366371     2.192209
 H    -0.002651     0.240331     1.884260
 C    -3.681042     0.719557     3.002965
 H    -4.707199     0.876863     3.339581
 C    -1.315404     1.136493     3.321247
 H    -0.486075     1.582890     3.869951
 C    -2.640790     1.320083     3.731293
 O    -3.009637     2.044819     4.800790
 C    -2.019558     2.666799     5.573089
 H    -1.438736     3.397269     4.983091
 H    -2.538662     3.195754     6.382110
 H    -1.322935     1.932925     6.014430
 C     3.437012     0.348016     1.440687
 C     4.408337     1.276853     1.056443
 H     4.107241     2.155405     0.484377
 C     3.807100    -0.773965     2.185403
 H     3.039241    -1.483374     2.497965
 C     5.748816     1.049672     1.343010
 H     6.516139     1.750396     1.010373
 C     5.148220    -1.002315     2.484033
 H     5.449942    -1.889919     3.042480
 C     6.113695    -0.104251     2.035014
Cl     7.796366    -0.435034     2.315703
 C     3.668952     0.919566    -2.113015
 H     3.037813     1.782970    -2.336386
 C     3.982470    -1.241968    -1.101619
 H     3.586193    -2.087484    -0.535955
 C     4.986931     0.909603    -2.542567
 H     5.405147     1.739203    -3.115748
 C     5.316084    -1.248784    -1.494712
 H     5.945745    -2.098614    -1.232254
 C     5.834100    -0.155073    -2.200049
 O     7.117941    -0.043772    -2.580122
 C     8.044595    -0.986317    -2.108205
 H     7.836252    -1.998788    -2.495584
 H     9.028841    -0.666256    -2.472466
 H     8.061257    -1.018910    -1.004520
 C     0.194267     1.539069    -2.295378
 H     0.098286     0.627119    -2.888405
 C     0.918876     2.669390    -0.299670
 H     1.412646     2.648034     0.672982
 C    -0.345879     2.719289    -2.774068
 H    -0.860888     2.759121    -3.735231
 C     0.362459     3.863231    -0.764171
 H     0.428939     4.757144    -0.143648
 C    -0.275638     3.893617    -2.008561
 O    -0.857234     4.983257    -2.539602
 C    -0.887641     6.166550    -1.792121
 H     0.127257     6.548179    -1.582779
 H    -1.427354     6.906647    -2.396003
 H    -1.420836     6.030675    -0.834518
