  52
scf done:    -3228.751985
 C    -4.517480    -0.581835    -0.410052
 H    -5.117102    -0.552539     0.506136
 H    -4.793510     0.185186    -1.140713
 C    -3.995327    -1.819865    -0.860264
 H    -4.192277    -2.730102    -0.283200
 H    -3.876820    -1.995974    -1.934408
 H    -2.406646    -0.076237    -1.446131
Co    -2.538168    -0.668479    -0.090490
 O    -0.497752     1.583662    -0.703441
 C    -2.945801     2.678398    -0.290372
 C    -1.371291     1.820961     1.896011
 O     0.511255    -1.297639     0.367572
 C    -0.781921    -3.522735    -0.555862
 C    -0.105926    -1.400339    -2.308148
 P    -0.787436    -1.698978    -0.646488
 P    -1.882302     1.289300     0.224047
 C    -2.610644    -1.221724     1.572399
 O    -2.628790    -1.556755     2.671367
 C     0.456546     2.507637    -0.404610
 C     1.521866     2.155573     0.430148
 H     1.544636     1.149675     0.852718
 C     0.409461     3.782940    -0.973018
 H    -0.414915     4.036954    -1.641759
 C     2.530200     3.074748     0.703040
 H     3.371880     2.820268     1.349760
 C     1.416721     4.706919    -0.702770
 H     1.404011     5.707679    -1.138366
 C     2.463730     4.342125     0.134811
 F     3.428450     5.224572     0.394257
 H    -3.876687     2.638867     0.294626
 H    -2.458016     3.652306    -0.134170
 H    -3.200223     2.550937    -1.351605
 H    -0.961119     2.840907     1.925236
 H    -2.266338     1.767885     2.534428
 H    -0.630496     1.111634     2.290607
 C     1.775739    -1.790371     0.236932
 C     2.704513    -1.145298    -0.586015
 H     2.396191    -0.261250    -1.146311
 C     2.167849    -2.906666     0.981269
 H     1.439362    -3.385924     1.637635
 C     4.011049    -1.618766    -0.673842
 H     4.752064    -1.128018    -1.307436
 C     3.472747    -3.384565     0.896972
 H     3.800073    -4.252510     1.472223
 C     4.378937    -2.735919     0.066336
 F     5.628835    -3.191024    -0.016548
 H     0.192130    -3.961736    -0.819141
 H    -1.068488    -3.834813     0.458671
 H    -1.549169    -3.890510    -1.253237
 H     0.049120    -0.318055    -2.417604
 H     0.829093    -1.948302    -2.494585
 H    -0.869241    -1.715634    -3.034698
