 112
scf done:    -4910.665086
 C     0.456072    -3.468843    -0.712231
 H     0.798959    -3.783854    -1.703442
 H     1.154049    -3.708907     0.094819
 C    -0.922093    -3.360794    -0.449334
 H    -1.647212    -3.590813    -1.235320
 H    -1.309608    -3.500992     0.563651
 H     0.247741    -1.594554     0.781462
Co    -0.102219    -1.524143    -0.654420
 O     1.610126     0.606000     0.928840
 C     2.981837    -1.722079     0.178300
 C     2.613998     0.579650    -1.551738
 O    -2.285528     0.799140    -1.026462
 C    -3.380523    -1.214915     0.335586
 C    -1.353838     0.546808     1.609169
 P    -1.759915    -0.366809     0.063372
 P     1.712453    -0.490691    -0.337038
 C    -0.340341    -1.331653    -2.380717
 O    -0.477855    -1.217395    -3.517460
 C     2.377540     1.720236     1.050306
 C     3.540275     1.709118     1.821184
 H     3.839683     0.776593     2.296506
 C     1.972676     2.898417     0.417226
 H     1.062327     2.870401    -0.183378
 C     4.296244     2.871283     1.960383
 H     5.208463     2.889889     2.560059
 C     2.725241     4.061117     0.548811
 H     2.434502     4.989304     0.053051
 C     3.881098     4.032432     1.320429
 F     4.609069     5.146308     1.450020
 C     3.523502    -2.518257    -0.847696
 O     3.130253    -2.180703    -2.090433
 C     3.530586    -2.944027    -3.189823
 H     3.044627    -2.498909    -4.067126
 H     4.625181    -2.915203    -3.332307
 H     3.207858    -3.995480    -3.093608
 C     3.303039    -2.054031     1.502676
 O     2.717437    -1.329981     2.484184
 C     3.081500    -1.545078     3.815423
 H     2.516901    -0.813420     4.407862
 H     4.162272    -1.384236     3.979002
 H     2.822205    -2.562492     4.159681
 C     4.190930    -3.104588     1.783923
 H     4.448504    -3.351378     2.813033
 C     4.401850    -3.570441    -0.580337
 H     4.817948    -4.171607    -1.387942
 C     4.733751    -3.846534     0.742405
 H     5.420552    -4.665984     0.966903
 C     4.016488     0.729508    -1.593348
 O     4.720179     0.115810    -0.628706
 C     6.108234     0.252488    -0.564134
 H     6.433242    -0.343206     0.298701
 H     6.604044    -0.136719    -1.470393
 H     6.406468     1.304628    -0.412055
 C     1.855146     1.353346    -2.451938
 O     0.528968     1.360963    -2.249999
 C    -0.308077     2.078080    -3.115687
 H    -1.318309     1.944379    -2.719076
 H    -0.255044     1.682230    -4.143949
 H    -0.053496     3.152192    -3.123709
 C     2.465606     2.117398    -3.456105
 H     1.865272     2.682787    -4.166667
 C     4.635379     1.504755    -2.581672
 H     5.719612     1.600418    -2.614780
 C     3.851186     2.172140    -3.514470
 H     4.333358     2.772190    -4.290130
 C    -3.518599     1.358558    -1.068875
 C    -4.225376     1.751099     0.072159
 H    -3.806954     1.570987     1.063201
 C    -4.082387     1.555227    -2.333167
 H    -3.531061     1.207744    -3.208691
 C    -5.477662     2.346103    -0.056521
 H    -6.048481     2.652774     0.822013
 C    -5.329444     2.159943    -2.465090
 H    -5.783650     2.322290    -3.444375
 C    -6.013917     2.550797    -1.321392
 F    -7.214340     3.127485    -1.440173
 C    -4.130708    -1.260610     1.526381
 O    -3.791335    -0.401428     2.502386
 C    -4.225202    -0.616325     3.812977
 H    -3.666151     0.089809     4.441522
 H    -5.305921    -0.421844     3.930125
 H    -4.006075    -1.645133     4.146094
 C    -3.878737    -1.936813    -0.771921
 O    -3.238312    -1.733227    -1.935770
 C    -3.617659    -2.440926    -3.082038
 H    -2.922513    -2.134368    -3.873039
 H    -4.650168    -2.195586    -3.385042
 H    -3.533777    -3.531816    -2.934103
 C    -4.982858    -2.787294    -0.655646
 H    -5.342291    -3.355560    -1.512175
 C    -5.225981    -2.125029     1.657576
 H    -5.783230    -2.171053     2.592531
 C    -5.629457    -2.888755     0.570582
 H    -6.488849    -3.555957     0.671337
 C    -1.020186    -0.253438     2.716426
 O    -1.326004    -1.564215     2.598097
 C    -0.583891    -2.509895     3.318936
 H    -0.874741    -3.494939     2.932030
 H     0.495346    -2.362970     3.156583
 H    -0.809252    -2.476353     4.399545
 C    -1.102937     1.927365     1.696782
 O    -1.385685     2.686766     0.617694
 C    -1.418618     4.079584     0.742882
 H    -1.795398     4.465710    -0.213165
 H    -0.417100     4.503805     0.931968
 H    -2.100180     4.398353     1.550623
 C    -0.550712     2.478531     2.861811
 H    -0.345312     3.546209     2.920453
 C    -0.444144     0.283085     3.867581
 H    -0.189804    -0.358219     4.711426
 C    -0.215391     1.654031     3.926689
 H     0.236138     2.090570     4.820691
