  98
scf done:    -4032.443041
 C    -0.276576    -2.830184    -0.873391
 H     0.599079    -3.457740    -0.677136
 H    -1.237327    -3.343915    -0.767167
 C    -0.163465    -1.734258    -1.757274
 H     0.787322    -1.548365    -2.270304
 H    -1.029721    -1.415293    -2.347970
 H    -0.112085     0.354185     0.496094
Co    -0.210022    -1.095324     0.174783
 O    -2.455563     0.779289    -1.273246
 C    -3.435434    -1.531981    -0.549380
 C    -2.927309     0.492775     1.382113
 O     2.297309    -0.010456     1.622403
 C     2.999088    -1.949398    -0.159463
 C     2.372880     0.698778    -1.061565
 P     1.823608    -0.579940     0.118700
 P    -2.150805    -0.337543    -0.047497
 C    -0.288827    -1.943064     1.696073
 O    -0.344325    -2.555155     2.670073
 C    -2.238420     2.121072    -1.267583
 C    -1.445739     2.778544    -0.324859
 H    -0.953137     2.211844     0.463094
 C    -2.866388     2.840314    -2.302741
 C    -3.703266     2.114886    -3.310058
 H    -4.109054     2.807543    -4.059689
 H    -3.115676     1.342763    -3.832197
 H    -4.545570     1.595319    -2.826010
 C    -1.276604     4.160027    -0.400063
 H    -0.651351     4.660129     0.343233
 C    -2.683662     4.222940    -2.348970
 H    -3.172236     4.787615    -3.147895
 C    -1.897289     4.890123    -1.409011
 H    -1.771174     5.973206    -1.468221
 C    -4.084090    -1.493664    -1.784167
 H    -3.873207    -0.682476    -2.480999
 C    -3.698231    -2.580786     0.341318
 H    -3.171310    -2.617991     1.300329
 C    -4.997235    -2.497635    -2.109611
 H    -5.504570    -2.474828    -3.077322
 C    -4.618313    -3.582955     0.031415
 C    -4.921048    -4.682786     1.006926
 H    -4.990942    -5.658442     0.502993
 H    -4.148494    -4.753287     1.785317
 H    -5.885731    -4.507140     1.511170
 C    -5.262656    -3.527108    -1.213354
 H    -5.978868    -4.308931    -1.481673
 C    -4.266585     0.897395     1.320530
 H    -4.860722     0.688244     0.427412
 C    -2.172482     0.760340     2.523468
 H    -1.123517     0.451328     2.546559
 C    -4.828595     1.564350     2.402421
 H    -5.871673     1.887198     2.362005
 C    -2.728092     1.426682     3.622246
 C    -1.896378     1.692160     4.843057
 H    -1.644385     0.752101     5.359694
 H    -0.943883     2.176607     4.577670
 H    -2.421616     2.340072     5.558552
 C    -4.065350     1.824977     3.541970
 H    -4.518685     2.351232     4.386702
 C     3.408286     0.752394     1.863116
 C     4.644628     0.146260     2.084233
 H     4.715996    -0.941333     2.040159
 C     3.255511     2.147319     1.922527
 C     1.912866     2.770078     1.693617
 H     1.633896     2.725619     0.628235
 H     1.129098     2.232943     2.249038
 H     1.909778     3.824940     2.000968
 C     5.764593     0.933850     2.341695
 H     6.733987     0.458868     2.509817
 C     4.394542     2.912340     2.188742
 H     4.296159     4.000315     2.237509
 C     5.640845     2.320927     2.388646
 H     6.514145     2.945091     2.591204
 C     3.184715    -2.874807     0.878672
 H     2.715686    -2.701692     1.850712
 C     3.574503    -2.193518    -1.407713
 H     3.426819    -1.476818    -2.220331
 C     3.965088    -4.003762     0.663754
 H     4.121554    -4.719592     1.474387
 C     4.351478    -3.336943    -1.640988
 C     4.943105    -3.584488    -2.998062
 H     4.159386    -3.853996    -3.724794
 H     5.446528    -2.685485    -3.385203
 H     5.674740    -4.404212    -2.976898
 C     4.544043    -4.232193    -0.586333
 H     5.153420    -5.125994    -0.745849
 C     3.717726     1.073937    -1.204469
 H     4.498500     0.580096    -0.623908
 C     1.394785     1.330657    -1.833225
 H     0.356106     1.013754    -1.710902
 C     4.052015     2.088217    -2.094960
 H     5.096011     2.392365    -2.201139
 C     1.720667     2.342732    -2.743378
 C     0.646769     3.009177    -3.549842
 H    -0.019844     2.267253    -4.014718
 H     0.014436     3.644631    -2.909959
 H     1.069847     3.639171    -4.344953
 C     3.063717     2.715139    -2.854777
 H     3.342553     3.506507    -3.556464
