  84
scf done:    -6133.793567
 C    -0.735293    -2.544436    -3.120392
 H    -1.297538    -3.333774    -2.613534
 H    -1.288110    -2.023031    -3.907747
 C     0.664884    -2.589402    -3.150202
 H     1.203055    -3.410383    -2.670028
 H     1.213762    -2.104525    -3.962681
 H     0.032307    -2.360020    -0.804904
Co     0.047143    -1.233639    -1.757833
 O     1.939951    -1.481953     0.856629
 O     3.121277    -1.720504    -1.303939
 O     2.282168     0.614984    -0.566774
 O    -2.950495    -0.290826    -1.858149
 O    -2.509937    -2.253485    -0.289074
 O    -2.055523     0.016427     0.507196
 P    -1.784091    -0.894720    -0.850607
 P     1.797247    -0.965274    -0.713418
 C     0.120013     0.193322    -2.793219
 O     0.172361     1.136493    -3.439921
 C     0.896145    -1.330293     1.739498
 C     0.076648    -2.425380     2.009345
 H     0.268411    -3.373230     1.505074
 C     0.679489    -0.106124     2.370445
 H     1.326675     0.743076     2.147476
 C    -0.982007    -2.291128     2.900147
 H    -1.649306    -3.126285     3.118799
 C    -0.380787     0.033290     3.261272
 H    -0.592447     0.986926     3.747047
 C    -1.203768    -1.058163     3.500955
 F    -2.257791    -0.915517     4.308708
 C     4.391451    -1.797036    -0.776373
 C     4.652356    -2.541612     0.371743
 H     3.838776    -3.071605     0.865488
 C     5.420472    -1.131883    -1.440163
 H     5.192198    -0.570260    -2.346804
 C     5.942251    -2.564844     0.894860
 H     6.161726    -3.127963     1.803286
 C     6.707745    -1.149843    -0.917529
 H     7.515447    -0.602669    -1.405468
 C     6.959433    -1.854775     0.259567
Cl     8.551192    -1.841484     0.940987
 C     3.511105     1.116071    -0.215305
 C     4.113415     2.003794    -1.104883
 H     3.585496     2.266496    -2.023581
 C     4.145363     0.772422     0.979486
 H     3.670151     0.076283     1.669791
 C     5.377777     2.513833    -0.828876
 H     5.867365     3.197791    -1.523841
 C     5.415343     1.270288     1.250317
 H     5.940721     0.979246     2.160913
 C     6.031797     2.128355     0.340530
Cl     7.631717     2.707106     0.658764
 C    -3.712558     0.838923    -1.661956
 C    -3.225920     2.067027    -2.111941
 H    -2.254149     2.108970    -2.606488
 C    -4.955729     0.756239    -1.038973
 H    -5.332209    -0.211027    -0.707394
 C    -3.964096     3.226309    -1.901566
 H    -3.595621     4.201876    -2.222391
 C    -5.701551     1.914413    -0.832378
 H    -6.675371     1.879545    -0.340828
 C    -5.191264     3.135628    -1.254313
 F    -5.895261     4.245399    -1.036887
 C    -3.829464    -2.317697     0.082808
 C    -4.752271    -2.836778    -0.823964
 H    -4.406417    -3.154073    -1.808889
 C    -4.239571    -1.893346     1.346691
 H    -3.509330    -1.487073     2.044278
 C    -6.096451    -2.924695    -0.474478
 H    -6.830369    -3.322798    -1.176674
 C    -5.583764    -1.978837     1.698219
 H    -5.920054    -1.647656     2.681914
 C    -6.507306    -2.488354     0.785362
Cl    -8.180432    -2.582103     1.220809
 C    -1.843942     1.361684     0.654566
 C    -2.822653     2.082760     1.337353
 H    -3.708533     1.559334     1.699145
 C    -0.698076     2.000385     0.182594
 H     0.086608     1.432070    -0.313696
 C    -2.676479     3.452811     1.518424
 H    -3.445234     4.029876     2.034468
 C    -0.552177     3.373415     0.360316
 H     0.338737     3.882422    -0.010916
 C    -1.544304     4.096981     1.018318
Cl    -1.371032     5.808990     1.220504
