  86
scf done:    -5713.179566
 C    -1.581568    -1.749796    -2.816351
 H    -2.263448    -2.586130    -2.630913
 H    -2.055359    -0.899640    -3.316057
 C    -0.203174    -1.987287    -2.981230
 H     0.161504    -3.019309    -2.948338
 H     0.402110    -1.319741    -3.601387
 H    -0.349460     0.120985    -1.819170
Co    -0.572883    -1.185137    -1.153821
 O    -2.887274     1.107454    -1.182360
 C    -3.804791    -1.199985    -0.409826
 C    -2.342467     0.395194     1.368638
 O     1.446848    -0.974504     1.289774
 C     2.826295    -0.975388    -1.034409
 C     1.424377     1.331290    -0.142363
 P     1.217734    -0.475743    -0.320565
 P    -2.271228    -0.211201    -0.358951
 C    -0.632076    -2.706803    -0.277165
 O    -0.621311    -3.690649     0.314562
 C    -2.139032     2.147762    -1.663852
 C    -1.732408     2.150370    -2.997181
 H    -1.955577     1.286413    -3.624759
 C    -1.855446     3.244588    -0.849843
 H    -2.161221     3.230536     0.197116
 C    -1.065213     3.258520    -3.514210
 H    -0.752568     3.250305    -4.562137
 C    -1.199460     4.348319    -1.384132
 H    -0.983172     5.203641    -0.739002
 C    -0.795332     4.380501    -2.724065
 C    -0.104644     5.588149    -3.288228
 H     0.504601     5.331455    -4.167204
 H     0.548396     6.060434    -2.539220
 H    -0.834895     6.350013    -3.608643
 C    -4.791608    -0.979329    -1.373872
 H    -4.683474    -0.149266    -2.073883
 C    -3.953933    -2.260758     0.491438
 H    -3.191866    -2.448093     1.252861
 C    -5.913722    -1.802513    -1.438078
 H    -6.689279    -1.632988    -2.186797
 C    -5.069138    -3.088331     0.436141
 H    -5.189909    -3.913888     1.139096
 C    -6.045248    -2.853412    -0.533229
Cl    -7.437231    -3.880527    -0.609215
 C    -1.432612    -0.086369     2.311777
 H    -0.646764    -0.783994     2.012338
 C    -3.332107     1.302535     1.769724
 H    -4.055203     1.669928     1.037255
 C    -1.496577     0.335714     3.639203
 H    -0.785891    -0.037333     4.378641
 C    -3.397335     1.741585     3.086158
 H    -4.159623     2.454372     3.405087
 C    -2.473910     1.254043     4.014946
Cl    -2.549352     1.800925     5.654841
 C     2.669655    -1.258063     1.839893
 C     3.413201    -0.277675     2.492311
 H     3.021599     0.737432     2.567963
 C     3.168776    -2.558546     1.743907
 H     2.566185    -3.317263     1.241009
 C     4.662314    -0.598657     3.023180
 H     5.240765     0.179043     3.529453
 C     4.417537    -2.861394     2.270936
 H     4.802966    -3.880568     2.177626
 C     5.193529    -1.886574     2.914096
 C     6.549346    -2.226032     3.461641
 H     7.008173    -1.363793     3.965306
 H     7.231928    -2.549383     2.659333
 H     6.493233    -3.050937     4.189405
 C     2.897368    -2.208762    -1.688837
 H     1.975989    -2.764164    -1.869871
 C     4.011066    -0.264590    -0.798413
 H     3.981535     0.696403    -0.281939
 C     4.119547    -2.735712    -2.093960
 H     4.175985    -3.699852    -2.601433
 C     5.239290    -0.778700    -1.196275
 H     6.163877    -0.232877    -1.003086
 C     5.285651    -2.016739    -1.837909
Cl     6.813809    -2.667664    -2.320220
 C     1.145516     1.979938     1.063080
 H     0.817037     1.401198     1.927712
 C     1.812185     2.093027    -1.251017
 H     2.007087     1.605693    -2.209751
 C     1.279736     3.362179     1.174739
 H     1.057355     3.870966     2.114015
 C     1.965816     3.469525    -1.148498
 H     2.278035     4.062397    -2.008839
 C     1.699251     4.095010     0.068583
Cl     1.853453     5.817939     0.192455
