  98
scf done:    -4032.444898
 C     0.659968     2.561593    -1.073538
 H    -0.148759     3.280608    -0.904762
 H     1.666137     2.986470    -0.996583
 C     0.436585     1.436822    -1.898394
 H    -0.531281     1.308472    -2.396477
 H     1.269324     1.012991    -2.471050
 H     0.221474    -0.566028     0.283607
Co     0.440562     0.900831     0.062879
 O     2.574632    -1.172763    -1.254009
 C     3.727882     1.043766    -0.546071
 C     2.942406    -0.844274     1.427199
 O    -2.057876     0.111651     1.696125
 C    -2.611037     2.208489     0.046033
 C    -2.520858    -0.451088    -0.977980
 P    -1.646357     0.663899     0.165257
 P     2.318385    -0.007396    -0.070244
 C     0.639964     1.781720     1.548867
 O     0.782563     2.425081     2.494566
 C     1.792130    -2.257558    -1.497445
 C     1.242662    -3.034946    -0.475905
 H     1.423203    -2.767132     0.564571
 C     1.592497    -2.595345    -2.848658
 C     2.191171    -1.748225    -3.928360
 H     1.902230    -2.113985    -4.922949
 H     1.868274    -0.699656    -3.836524
 H     3.291341    -1.747618    -3.869149
 C     0.480501    -4.157954    -0.792040
 H     0.050209    -4.757059     0.013572
 C     0.837599    -3.735411    -3.133930
 H     0.683722    -4.011350    -4.181168
 C     0.277510    -4.514484    -2.121632
 H    -0.315926    -5.396144    -2.373251
 C     4.411257     0.915752    -1.755860
 H     4.146406     0.107603    -2.438453
 C     4.074309     2.088634     0.322420
 H     3.539715     2.211179     1.268934
 C     5.429299     1.811371    -2.084447
 H     5.956617     1.697168    -3.035709
 C     5.092965     2.970735    -0.010550
 H     5.353770     3.775820     0.682229
 C     5.788844     2.850429    -1.223091
 C     6.875928     3.821738    -1.578102
 H     6.471443     4.839021    -1.704745
 H     7.638393     3.875121    -0.785225
 H     7.378210     3.541549    -2.514446
 C     4.249987    -1.343739     1.469866
 H     4.912642    -1.201391     0.612212
 C     2.103939    -1.038535     2.527510
 H     1.076509    -0.667651     2.485620
 C     4.704284    -2.020335     2.594996
 H     5.726552    -2.408722     2.613838
 C     2.568490    -1.714036     3.653364
 H     1.900315    -1.857937     4.506853
 C     3.873729    -2.214126     3.708477
 C     4.385021    -2.917981     4.930444
 H     5.016763    -2.244611     5.533419
 H     3.562269    -3.261890     5.572792
 H     5.002641    -3.788731     4.664193
 C    -3.234734    -0.513862     2.010674
 C    -4.357282     0.234452     2.364181
 H    -4.289055     1.323117     2.364147
 C    -3.262601    -1.918201     2.008609
 C    -2.036592    -2.697151     1.646021
 H    -1.821767    -2.625003     0.568066
 H    -1.149906    -2.305745     2.166744
 H    -2.157265    -3.760121     1.896788
 C    -5.545238    -0.413373     2.695824
 H    -6.425294     0.174041     2.968046
 C    -4.466198    -2.541567     2.350037
 H    -4.507816    -3.634308     2.353208
 C    -5.602110    -1.805362     2.682736
 H    -6.529442    -2.321163     2.942271
 C    -2.622857     3.080964     1.144564
 H    -2.159228     2.770515     2.084474
 C    -3.176600     2.638615    -1.157152
 H    -3.169588     1.982064    -2.030574
 C    -3.215017     4.332727     1.044808
 H    -3.221040     4.994536     1.915651
 C    -3.760114     3.901838    -1.251814
 H    -4.199681     4.219246    -2.201399
 C    -3.795861     4.767770    -0.156124
 C    -4.430988     6.123733    -0.249404
 H    -4.786326     6.334354    -1.267619
 H    -5.292419     6.206495     0.432766
 H    -3.719860     6.916000     0.032915
 C    -3.921830    -0.528527    -1.020358
 H    -4.527829     0.113382    -0.378604
 C    -1.774175    -1.279502    -1.820859
 H    -0.683698    -1.227391    -1.787505
 C    -4.549357    -1.428992    -1.871949
 H    -5.641272    -1.487792    -1.877781
 C    -2.411990    -2.167943    -2.681972
 H    -1.805657    -2.806627    -3.327625
 C    -3.806516    -2.262955    -2.718986
 C    -4.494176    -3.212254    -3.654956
 H    -3.808440    -3.993579    -4.011669
 H    -5.353749    -3.700635    -3.171986
 H    -4.879782    -2.679745    -4.540379
