  80
scf done:    -4715.663350
 C    -0.056185     3.215518    -1.830744
 H     0.222911     4.083540    -1.224499
 H     0.644934     2.997201    -2.641140
 C    -1.404701     2.829444    -1.943053
 H    -2.179268     3.417813    -1.439756
 H    -1.754658     2.303525    -2.836229
 H    -0.072978     0.792943    -1.934763
Co    -0.406330     1.567608    -0.706148
 O     2.364274     0.029983    -1.102879
 C     2.733373     2.579425    -0.260269
 C     1.940058     0.530313     1.559194
 O    -2.138988    -0.702328     0.860159
 C    -2.947205    -0.414684    -1.720618
 C    -0.562754    -1.788481    -0.968235
 P    -1.475825    -0.234513    -0.647407
 P     1.592258     1.161306    -0.120396
 C    -0.929776     2.364152     0.760344
 O    -1.283323     2.871898     1.729212
 C     3.383242    -0.777480    -0.685451
 C     4.709267    -0.443405    -0.963061
 H     4.930546     0.482536    -1.494923
 C     3.089664    -1.957849     0.000895
 H     2.049521    -2.205587     0.215077
 C     5.741143    -1.283177    -0.550307
 H     6.781644    -1.030915    -0.760761
 C     4.115718    -2.797497     0.416368
 H     3.893375    -3.718202     0.957665
 C     5.439387    -2.454123     0.142120
Cl     6.722831    -3.496395     0.666249
 C     2.814974     3.526459     0.767916
 C     3.403387     2.818069    -1.465255
 C     4.258235     4.903870    -0.596055
 C     4.167696     3.971484    -1.628706
 C     3.576655     4.680589     0.600230
 H     2.282078     3.359235     1.707972
 H     3.639433     5.410135     1.411207
 H     4.856546     5.808810    -0.725127
 H     4.691911     4.145721    -2.571553
 H     3.316635     2.093694    -2.278659
 C     0.906623    -0.099846     2.261570
 C     3.224539     0.574751     2.121678
 C     2.434971    -0.643060     4.050405
 C     3.469538    -0.010442     3.359528
 C     1.154664    -0.683938     3.502697
 H    -0.099254    -0.142625     1.838184
 H     0.339439    -1.172188     4.041659
 H     2.629591    -1.103508     5.022211
 H     4.475052     0.022032     3.785197
 H     4.039870     1.061337     1.582194
 C    -3.453269    -0.572059     1.192915
 C    -4.368402    -1.566257     0.837728
 H    -4.021621    -2.434933     0.276121
 C    -3.883311     0.546829     1.908274
 H    -3.159889     1.313837     2.188017
 C    -5.710164    -1.436125     1.177409
 H    -6.432975    -2.203005     0.895019
 C    -5.225479     0.679495     2.253994
 H    -5.571891     1.551536     2.810910
 C    -6.134230    -0.309019     1.880662
Cl    -7.808909    -0.138156     2.296973
 C    -3.877949     0.632315    -1.717695
 C    -3.214980    -1.567295    -2.467098
 C    -5.328304    -0.631775    -3.173320
 C    -4.398478    -1.669846    -3.196531
 C    -5.067668     0.519288    -2.430047
 H    -3.667999     1.533305    -1.137893
 H    -5.794090     1.334721    -2.406547
 H    -6.259435    -0.718696    -3.738484
 H    -4.597401    -2.571019    -3.781557
 H    -2.499389    -2.392211    -2.473867
 C     0.228236    -1.895837    -2.119560
 C    -0.657877    -2.883558    -0.101600
 C     0.789510    -4.174497    -1.545291
 C     0.019774    -4.069012    -0.388729
 C     0.891677    -3.084257    -2.409717
 H     0.333979    -1.037090    -2.785628
 H     1.506154    -3.153922    -3.309977
 H     1.321335    -5.102260    -1.768851
 H    -0.057412    -4.915044     0.298499
 H    -1.264292    -2.797974     0.801082
