  86
scf done:    -3875.291985
 C     0.062866     3.059335    -1.882132
 H     0.415163     3.930489    -1.319955
 H     0.722512     2.766897    -2.703967
 C    -1.310856     2.756507    -1.939311
 H    -2.030316     3.412366    -1.437514
 H    -1.721913     2.222137    -2.800926
 H    -0.108494     0.643794    -1.891133
Co    -0.355159     1.481611    -0.684722
 O     2.297492    -0.244663    -1.106379
 C     2.850283     2.304116    -0.362436
 C     1.988267     0.373134     1.549497
 O    -2.180668    -0.613786     1.018529
 C    -3.048665    -0.362840    -1.548011
 C    -0.738137    -1.863752    -0.812382
 P    -1.538766    -0.243368    -0.518924
 P     1.631053     0.961917    -0.144254
 C    -0.769990     2.369904     0.763942
 O    -1.046832     2.944776     1.720337
 C     3.284228    -1.099168    -0.692036
 C     2.945652    -2.237439     0.042379
 H     1.900036    -2.414580     0.296866
 C     4.616882    -0.855122    -1.016796
 H     4.877719     0.039068    -1.584133
 C     3.940215    -3.116319     0.451414
 H     3.660414    -3.999714     1.032315
 C     5.603614    -1.748159    -0.600032
 H     6.647223    -1.545837    -0.856924
 C     5.288333    -2.890330     0.141758
 C     6.350348    -3.857277     0.579504
 H     6.301079    -4.793890    -0.000339
 H     6.234220    -4.128506     1.640163
 H     7.357572    -3.438056     0.445086
 C     3.017279     3.277967     0.629709
 C     3.499283     2.462072    -1.591809
 C     4.500562     4.520342    -0.818450
 C     4.325637     3.561361    -1.815285
 C     3.841021     4.377989     0.402352
 H     2.501728     3.174114     1.588394
 H     3.969764     5.128842     1.185704
 H     5.147568     5.382936    -0.994492
 H     4.832662     3.672139    -2.776987
 H     3.347596     1.716631    -2.376056
 C     3.290319     0.349103     2.070981
 C     0.936485    -0.149171     2.310366
 C     2.479655    -0.720409     4.077514
 C     1.182678    -0.693642     3.569797
 C     3.533277    -0.196081     3.327326
 H     4.119939     0.749570     1.484695
 H     4.552057    -0.216927     3.721191
 H     2.672431    -1.149007     5.064258
 H     0.352566    -1.097218     4.154220
 H    -0.083250    -0.137982     1.919372
 C    -3.472960    -0.371811     1.388883
 C    -4.469689    -1.308557     1.105206
 H    -4.205428    -2.220590     0.567314
 C    -3.798420     0.800701     2.067822
 H    -3.014486     1.525555     2.291402
 C    -5.782558    -1.059083     1.485933
 H    -6.555232    -1.795617     1.247645
 C    -5.119692     1.034706     2.445880
 H    -5.364953     1.959951     2.974762
 C    -6.135611     0.117780     2.160060
 C    -7.557501     0.369902     2.571439
 H    -8.251580     0.219554     1.729896
 H    -7.693191     1.395548     2.942517
 H    -7.869684    -0.318222     3.374232
 C    -3.910615     0.741310    -1.557162
 C    -3.406769    -1.516594    -2.253448
 C    -5.470144    -0.466744    -2.946230
 C    -4.609941    -1.563324    -2.955947
 C    -5.120095     0.685351    -2.242371
 H    -3.631145     1.642344    -1.007730
 H    -5.791526     1.546944    -2.228959
 H    -6.416348    -0.508887    -3.491312
 H    -4.878897    -2.466339    -3.509377
 H    -2.745957    -2.386024    -2.249477
 C     0.011549    -2.061199    -1.979109
 C    -0.882077    -2.921426     0.092937
 C     0.435188    -4.352773    -1.342683
 C    -0.293231    -4.158437    -0.171054
 C     0.585748    -3.300382    -2.245905
 H     0.156538    -1.232746    -2.675381
 H     1.170055    -3.439617    -3.158096
 H     0.898101    -5.320886    -1.547938
 H    -0.407166    -4.974710     0.546460
 H    -1.456821    -2.765113     1.006809
