 102
scf done:    -4333.249241
 C     0.285618    -3.315406     0.361654
 H    -0.644158    -3.850875     0.150140
 H     1.191781    -3.785203    -0.032435
 C     0.360261    -2.474811     1.489889
 H    -0.504471    -2.389408     2.154696
 H     1.317651    -2.310109     1.992853
 H     0.178877     0.122273    -0.075999
Co     0.175922    -1.367947    -0.224783
 O     2.887380    -0.491099     1.294620
 O     3.220355    -1.975425    -0.671141
 O     2.710311     0.511006    -0.943994
 O    -2.250696     0.216496     1.305236
 O    -2.706353    -0.508582    -1.093024
 O    -2.630801    -2.170524     0.849337
 P    -1.792453    -0.920575     0.205157
 P     2.172170    -0.818125    -0.147244
 C    -0.031211    -1.788864    -1.915866
 O    -0.201280    -2.120188    -3.001083
 C     3.272404     0.740065     1.777432
 C     4.512395     1.257504     1.414002
 H     5.143582     0.687334     0.729929
 C     2.414828     1.408179     2.660350
 C     1.115786     0.791704     3.077352
 H     0.463947     1.537250     3.550112
 H     0.583108     0.351202     2.222636
 H     1.288500    -0.025422     3.797381
 C     4.912076     2.491427     1.920164
 H     5.882333     2.904748     1.635555
 C     2.838683     2.650486     3.144890
 H     2.179672     3.199492     3.822815
 C     4.068680     3.194104     2.779856
 H     4.371317     4.167543     3.172455
 C     4.589618    -1.848026    -0.561465
 C     5.286829    -1.098073    -1.505652
 H     4.735251    -0.612194    -2.311484
 C     5.241938    -2.501375     0.493798
 C     4.465451    -3.300393     1.493663
 H     3.878288    -2.635684     2.146290
 H     3.751534    -3.974436     0.997487
 H     5.135328    -3.900460     2.124065
 C     6.670265    -0.972718    -1.400336
 H     7.218877    -0.382850    -2.138005
 C     6.631246    -2.361438     0.571643
 H     7.162761    -2.861955     1.385501
 C     7.343477    -1.603224    -0.356090
 H     8.428112    -1.511060    -0.265651
 C     2.108854     1.122564    -2.012772
 C     1.910522     0.436007    -3.207441
 H     2.200991    -0.613704    -3.278798
 C     1.777865     2.478622    -1.870828
 C     2.063397     3.192274    -0.587517
 H     1.515929     2.742174     0.253910
 H     3.130910     3.129522    -0.328265
 H     1.779113     4.250685    -0.652684
 C     1.341702     1.096912    -4.294223
 H     1.174787     0.555877    -5.227950
 C     1.211141     3.115545    -2.979077
 H     0.947120     4.173489    -2.895766
 C     0.989339     2.439016    -4.178720
 H     0.543098     2.964870    -5.025662
 C    -1.917368     1.543410     1.357920
 C    -1.465932     2.257815     0.250585
 H    -1.335307     1.765625    -0.711764
 C    -2.094380     2.162791     2.605565
 C    -2.590741     1.367744     3.772773
 H    -2.563750     1.962446     4.695795
 H    -3.628320     1.034918     3.609490
 H    -1.985114     0.460149     3.921555
 C    -1.191250     3.618111     0.376107
 H    -0.851240     4.172631    -0.500483
 C    -1.800673     3.523897     2.702185
 H    -1.932592     4.020177     3.667564
 C    -1.352885     4.254786     1.601562
 H    -1.136323     5.320200     1.703691
 C    -3.604517     0.508600    -1.326949
 C    -4.679513     0.761017    -0.480988
 H    -4.829900     0.148757     0.407432
 C    -3.382043     1.258553    -2.491813
 C    -2.209885     0.951347    -3.370563
 H    -1.253175     1.108410    -2.846456
 H    -2.209256    -0.101504    -3.689921
 H    -2.207768     1.590954    -4.263019
 C    -5.552213     1.804225    -0.784107
 H    -6.393249     2.008962    -0.118077
 C    -4.279392     2.291469    -2.771867
 H    -4.124296     2.889965    -3.673626
 C    -5.353146     2.572086    -1.927819
 H    -6.036163     3.389892    -2.167931
 C    -3.993500    -2.211495     1.040409
 C    -4.533577    -1.695081     2.215052
 H    -3.860095    -1.259151     2.952869
 C    -4.790708    -2.806372     0.052386
 C    -4.173231    -3.391320    -1.180326
 H    -4.922820    -3.926618    -1.778084
 H    -3.720775    -2.608995    -1.807969
 H    -3.366623    -4.093705    -0.919734
 C    -5.912082    -1.731429     2.411600
 H    -6.341608    -1.321954     3.328696
 C    -6.171036    -2.827776     0.277454
 H    -6.817207    -3.279512    -0.479808
 C    -6.733096    -2.291250     1.434564
 H    -7.815613    -2.320427     1.576876
