 110
scf done:    -4189.576205
 C    -0.058805    -1.459749    -3.280951
 H    -0.671303    -2.347226    -3.472943
 H    -0.451507    -0.547788    -3.741846
 C     1.338533    -1.591754    -3.104268
 H     1.802009    -2.583147    -3.158243
 H     2.003246    -0.779451    -3.416299
 H     0.610182     0.229235    -1.671301
Co     0.436091    -1.203378    -1.342638
 O    -0.535161     0.987145     0.565209
 C    -2.069381     0.972258    -1.752542
 C    -2.528296    -0.772868     0.594403
 O     2.035371    -1.528717     1.481078
 C     3.656778    -1.680300    -0.601462
 C     2.635024     0.858986     0.402074
 P     2.105561    -0.845984    -0.067707
 P    -1.203011    -0.129347    -0.522798
 C     0.271221    -2.896889    -0.940647
 O     0.233850    -4.030477    -0.748064
 C    -1.046199     2.178203     0.972920
 C    -0.602341     3.350447     0.353322
 H     0.133740     3.278567    -0.451068
 C    -1.943485     2.262722     2.039786
 H    -2.248437     1.351660     2.554593
 C    -1.094599     4.585191     0.765632
 H    -0.742456     5.492528     0.267233
 C    -2.430143     3.505084     2.437717
 H    -3.140410     3.556448     3.267601
 C    -2.030031     4.687092     1.803317
 C    -2.593997     6.017969     2.208373
 H    -1.842309     6.816715     2.126142
 H    -2.963187     6.001680     3.243769
 H    -3.441424     6.301628     1.561932
 H    -1.436636     1.873770    -1.773989
 H    -1.894827     0.464615    -2.708814
 C    -3.515338     1.350111    -1.613129
 C    -3.885905     2.480641    -0.872411
 H    -3.113608     3.070904    -0.377641
 C    -4.515511     0.613677    -2.284986
 C    -4.175410    -0.563409    -3.150168
 H    -3.581570    -1.314484    -2.609658
 H    -3.589306    -0.254893    -4.032072
 H    -5.085572    -1.060565    -3.510809
 C    -5.216083     2.878873    -0.769955
 H    -5.473000     3.766042    -0.186409
 C    -5.847977     1.023314    -2.162909
 H    -6.621432     0.446411    -2.676966
 C    -6.205886     2.141492    -1.414522
 H    -7.255142     2.437413    -1.340817
 H    -1.959255    -1.223127     1.424616
 H    -3.034994     0.115138     0.990343
 C    -3.537025    -1.744777     0.051824
 C    -3.125558    -2.896356    -0.628262
 H    -2.062175    -3.084995    -0.753923
 C    -4.916848    -1.530184     0.258303
 C    -5.421509    -0.368551     1.063172
 H    -5.100718     0.596164     0.643606
 H    -5.053802    -0.413929     2.102002
 H    -6.519169    -0.364816     1.097668
 C    -4.043292    -3.805490    -1.147607
 H    -3.688295    -4.692357    -1.677512
 C    -5.826241    -2.447117    -0.279581
 H    -6.895384    -2.273164    -0.129684
 C    -5.405268    -3.571158    -0.986272
 H    -6.141077    -4.268201    -1.394534
 C     0.910706    -1.590428     2.250815
 C     0.196019    -2.787319     2.331892
 H     0.529883    -3.645699     1.748836
 C     0.509263    -0.499078     3.021740
 H     1.075969     0.431570     2.971660
 C    -0.924476    -2.876393     3.152991
 H    -1.480973    -3.816708     3.192798
 C    -0.607022    -0.604889     3.846923
 H    -0.904699     0.258094     4.448948
 C    -1.355832    -1.785449     3.918050
 C    -2.600999    -1.871208     4.751696
 H    -2.690888    -2.849544     5.246574
 H    -3.501429    -1.742708     4.126710
 H    -2.622887    -1.092434     5.527410
 H     3.406820    -2.751630    -0.516493
 H     3.719483    -1.469593    -1.676393
 C     4.947881    -1.366170     0.099885
 C     5.092038    -1.654108     1.464070
 H     4.243483    -2.083259     1.999634
 C     6.037485    -0.812512    -0.606622
 C     5.958201    -0.508318    -2.074699
 H     5.154283     0.208358    -2.301110
 H     5.766960    -1.417997    -2.666961
 H     6.899861    -0.070890    -2.432418
 C     6.283453    -1.395366     2.136757
 H     6.370043    -1.628923     3.200559
 C     7.226061    -0.558784     0.087942
 H     8.070021    -0.128440    -0.458084
 C     7.357952    -0.842275     1.444629
 H     8.299605    -0.633104     1.957915
 H     1.695916     1.372039     0.660873
 H     3.209385     0.722931     1.326606
 C     3.426509     1.646396    -0.607294
 C     2.960895     1.805149    -1.919077
 H     2.015459     1.335403    -2.200244
 C     4.639495     2.265511    -0.233035
 C     5.171335     2.178430     1.167565
 H     5.345394     1.136279     1.475120
 H     4.470800     2.624375     1.892204
 H     6.127318     2.711997     1.254697
 C     3.677507     2.534943    -2.864974
 H     3.290373     2.635792    -3.881658
 C     5.347855     2.990732    -1.197731
 H     6.290535     3.463351    -0.908606
 C     4.884096     3.126882    -2.503865
 H     5.462807     3.698306    -3.233501
