 102
scf done:    -4333.245324
 C     1.124401    -2.968233    -2.764828
 H     1.846370    -2.692200    -3.539195
 H     1.481900    -3.736818    -2.073872
 C    -0.253629    -2.805982    -2.986801
 H    -0.612482    -2.409002    -3.941543
 H    -0.973392    -3.447336    -2.471223
 H     0.149256    -2.274485    -0.668166
Co     0.434146    -1.339854    -1.768659
 O     2.338308    -1.542666     0.888695
 O     3.527187    -1.190541    -1.254172
 O     2.140679     0.745347    -0.253110
 O    -1.385482     1.155300    -1.072508
 O    -2.731723    -0.890133    -1.733191
 O    -1.612904    -0.796245     0.569296
 P    -1.296938    -0.497097    -1.011759
 P     2.066850    -0.862756    -0.596418
 C     0.788047    -0.138090    -3.014265
 O     1.041215     0.665548    -3.789823
 C     1.318213    -1.737009     1.793956
 C     0.766453    -3.007515     1.928050
 H     1.144258    -3.819102     1.303569
 C     0.866286    -0.686561     2.588458
 H     1.320629     0.300544     2.491590
 C    -0.254843    -3.216610     2.850697
 H    -0.689180    -4.215129     2.949735
 C    -0.157456    -0.911736     3.502818
 H    -0.517250    -0.079454     4.113545
 C    -0.743897    -2.174157     3.646317
 C    -1.888960    -2.390981     4.589679
 H    -1.943822    -3.436522     4.925423
 H    -2.844770    -2.150038     4.095706
 H    -1.807373    -1.748119     5.478220
 C     4.747566    -0.648542    -0.907471
 C     5.096103     0.596201    -1.424519
 H     4.390037     1.109012    -2.080011
 C     5.615806    -1.382201    -0.088800
 C     5.243179    -2.746563     0.404284
 H     4.447587    -2.691833     1.162347
 H     4.849123    -3.364746    -0.416432
 H     6.112707    -3.254906     0.842503
 C     6.314110     1.170994    -1.077355
 H     6.578069     2.158294    -1.461833
 C     6.837891    -0.783254     0.236425
 H     7.533860    -1.331819     0.877092
 C     7.183585     0.481731    -0.234825
 H     8.141421     0.924219     0.047507
 C     2.935295     1.581026     0.491117
 C     3.718360     1.154387     1.562302
 H     3.747957     0.098933     1.828365
 C     2.887419     2.929452     0.101466
 C     2.053632     3.339106    -1.073091
 H     2.104068     4.424567    -1.232060
 H     2.389602     2.836563    -1.994458
 H     0.999887     3.052462    -0.938757
 C     4.485352     2.086163     2.258403
 H     5.111828     1.748926     3.087083
 C     3.661400     3.838361     0.826238
 H     3.640025     4.892001     0.534647
 C     4.458120     3.429583     1.894934
 H     5.059104     4.160876     2.439738
 C    -1.711782     2.017453    -0.056834
 C    -0.814413     2.225477     0.989190
 H     0.130030     1.681812     0.992845
 C    -2.922101     2.705015    -0.095045
 H    -3.615084     2.530025    -0.919327
 C    -1.145682     3.107494     2.012981
 H    -0.437921     3.258906     2.832815
 C    -3.235694     3.586903     0.936191
 H    -4.192462     4.115491     0.907386
 C    -2.362336     3.802075     2.009662
 C    -2.701341     4.773476     3.103009
 H    -2.314317     5.780135     2.871820
 H    -2.261427     4.469265     4.063967
 H    -3.788750     4.865458     3.238204
 C    -3.787843    -0.047560    -2.006191
 C    -4.912655    -0.074085    -1.184704
 H    -4.930543    -0.744769    -0.325927
 C    -3.724119     0.776733    -3.140667
 C    -2.518965     0.772901    -4.027989
 H    -1.707767     1.373913    -3.588631
 H    -2.129173    -0.247106    -4.159348
 H    -2.754400     1.190960    -5.016039
 C    -5.991201     0.760982    -1.463977
 H    -6.868160     0.743174    -0.813156
 C    -4.821966     1.606076    -3.394672
 H    -4.791049     2.259837    -4.270537
 C    -5.942958     1.611681    -2.566370
 H    -6.783199     2.272553    -2.791038
 C    -2.800666    -1.058998     1.202976
 C    -3.370137    -0.073007     2.005921
 H    -2.875100     0.894244     2.088474
 C    -3.374689    -2.334732     1.083282
 C    -2.738290    -3.391348     0.236140
 H    -2.949641    -3.214816    -0.830458
 H    -1.645286    -3.380578     0.353797
 H    -3.116058    -4.388080     0.501769
 C    -4.561473    -0.332930     2.677583
 H    -5.011032     0.445693     3.297762
 C    -4.571937    -2.566142     1.770824
 H    -5.039934    -3.550661     1.686385
 C    -5.171924    -1.580009     2.552446
 H    -6.108555    -1.791523     3.072997
