 106
scf done:    -4261.420091
 C     0.662016    -1.913338    -3.094651
 H     1.286494    -1.463750    -3.873115
 H     1.113101    -2.784909    -2.609249
 C    -0.740597    -1.800670    -3.158940
 H    -1.206445    -1.271913    -3.996560
 H    -1.379704    -2.560747    -2.701692
 H    -0.125382    -1.682472    -0.819610
Co    -0.012230    -0.546172    -1.754217
 C     2.421783    -1.763235     0.216293
 O     3.009197     0.240673    -1.621489
 O     1.783676     0.743150     0.631769
 C    -2.333817     1.623116    -0.552040
 O    -2.978725    -1.050012    -0.986703
 O    -1.548368    -0.290889     1.048681
 P    -1.682167    -0.091265    -0.607610
 P     1.760123    -0.307525    -0.679636
 C     0.022562     0.872302    -2.792135
 O     0.016088     1.792008    -3.477974
 H     1.651691    -1.958866     0.978755
 H     2.350483    -2.582646    -0.512230
 C     3.782890    -1.650833     0.827680
 C     3.918719    -1.078914     2.097073
 H     3.018485    -0.754841     2.623765
 C     4.929001    -2.081084     0.130338
 C     4.821541    -2.741284    -1.213861
 H     4.217163    -2.148984    -1.916054
 H     4.348026    -3.734620    -1.133642
 H     5.814078    -2.879531    -1.663007
 C     5.171863    -0.904547     2.675408
 H     5.259141    -0.455327     3.667811
 C     6.181170    -1.887237     0.721310
 H     7.075560    -2.200102     0.176340
 C     6.310481    -1.302235     1.978061
 H     7.302736    -1.160053     2.412979
 C     4.289279     0.663733    -1.365792
 C     4.665430     1.326245    -0.199792
 H     3.935016     1.491738     0.590037
 C     5.217275     0.443986    -2.386389
 H     4.888698    -0.055547    -3.299263
 C     5.987721     1.749777    -0.024907
 C     6.379842     2.441029     1.248115
 H     5.732031     3.309302     1.445247
 H     6.277940     1.757359     2.105739
 H     7.420621     2.792074     1.213574
 C     6.530189     0.865159    -2.213807
 H     7.260699     0.691120    -3.007702
 C     6.918167     1.508736    -1.039255
 H     7.953485     1.834068    -0.910448
 C     1.219879     1.984726     0.581221
 C     0.549158     2.436671     1.720459
 H     0.510211     1.783112     2.592269
 C     1.316058     2.800409    -0.546348
 H     1.871610     2.465595    -1.422482
 C    -0.065146     3.689486     1.743755
 C    -0.793108     4.171705     2.964762
 H    -0.787116     3.417064     3.763691
 H    -0.332081     5.089238     3.363549
 H    -1.842759     4.408306     2.730452
 C     0.690353     4.046866    -0.532656
 H     0.746591     4.678532    -1.422089
 C     0.001186     4.487675     0.591989
 H    -0.488055     5.464921     0.584305
 H    -1.481713     2.193352    -0.148378
 H    -2.421189     1.914536    -1.608458
 C    -3.584419     1.898048     0.224391
 C    -3.511159     2.025041     1.615998
 H    -2.535928     1.933235     2.097324
 C    -4.833024     2.009256    -0.419184
 C    -4.952673     1.922701    -1.913053
 H    -4.485952     1.009265    -2.309535
 H    -4.464306     2.780329    -2.405728
 H    -6.006893     1.916577    -2.221482
 C    -4.654163     2.233034     2.380777
 H    -4.576675     2.322723     3.467062
 C    -5.972292     2.212071     0.365768
 H    -6.945517     2.282384    -0.127147
 C    -5.893980     2.318950     1.751633
 H    -6.802675     2.472151     2.338654
 C    -4.236960    -1.181600    -0.455478
 C    -5.257514    -1.442311    -1.367645
 H    -4.998492    -1.505888    -2.427263
 C    -4.507662    -1.121714     0.912971
 H    -3.712128    -0.918507     1.626060
 C    -6.578080    -1.609276    -0.939986
 C    -7.668305    -1.859904    -1.941618
 H    -7.789321    -0.999739    -2.619970
 H    -7.441528    -2.735567    -2.569756
 H    -8.634393    -2.037203    -1.448951
 C    -5.820938    -1.287772     1.338979
 H    -6.043208    -1.223061     2.406510
 C    -6.849581    -1.524107     0.428791
 H    -7.875754    -1.646992     0.784116
 C    -1.001387    -1.378872     1.660214
 C    -1.217903    -2.677646     1.197830
 H    -1.853763    -2.838381     0.325480
 C    -0.223281    -1.157467     2.798810
 H    -0.081411    -0.137014     3.152053
 C    -0.619562    -3.769527     1.838503
 C    -0.834039    -5.154158     1.300990
 H    -0.406228    -5.253697     0.290438
 H    -0.366488    -5.913723     1.942427
 H    -1.907179    -5.386961     1.220584
 C     0.359513    -2.241072     3.446071
 H     0.975399    -2.072681     4.332586
 C     0.176337    -3.537613     2.964093
 H     0.652018    -4.380024     3.471812
