 100
scf done:    -4182.702879
 C    -0.149018    -1.134949    -3.709579
 H    -0.580792    -2.086579    -4.039203
 H    -0.699487    -0.258821    -4.066644
 C     1.246371    -1.039707    -3.499805
 H     1.870158    -1.921002    -3.685833
 H     1.768842    -0.093789    -3.672143
 H     0.162351     0.407546    -1.961971
Co     0.265124    -1.045338    -1.741794
 C    -2.996244    -1.030924    -2.271775
 C    -2.316664    -1.773308     0.474158
 C    -2.174825     0.969714    -0.394200
 C     1.875304    -1.199923     1.300878
 C     3.433106    -0.145554    -0.808928
 C     1.299755     1.449883     0.238640
 P     1.673254    -0.253228    -0.312468
 P    -1.728578    -0.734877    -0.922757
 C     0.509723    -2.764851    -1.509272
 O     0.735317    -3.888568    -1.393525
 H    -2.738069    -2.021017    -2.674334
 H    -2.717361    -0.297970    -3.043286
 C    -4.449551    -0.944018    -1.939122
 C    -5.077879     0.292175    -1.729546
 H    -4.505577     1.214571    -1.849662
 C    -5.210501    -2.110922    -1.790055
 H    -4.733407    -3.081353    -1.950560
 C    -6.416685     0.353693    -1.349994
 H    -6.885281     1.326434    -1.181411
 C    -6.551202    -2.050892    -1.417874
 H    -7.124018    -2.974273    -1.302250
 C    -7.157704    -0.816961    -1.186561
 H    -8.207642    -0.766564    -0.888322
 C    -3.634953    -1.760847     0.974973
 H    -4.386139    -1.101815     0.541030
 C    -1.406655    -2.631956     1.093363
 H    -0.380403    -2.663729     0.731617
 C    -4.009980    -2.575640     2.030313
 H    -5.032764    -2.566925     2.411609
 C    -1.765483    -3.456636     2.158926
 H    -1.013012    -4.109452     2.601567
 C    -3.079788    -3.434771     2.634263
 O    -3.535149    -4.188147     3.651430
 C    -2.649247    -5.064533     4.291347
 H    -1.804508    -4.526698     4.756618
 H    -3.222178    -5.572939     5.077010
 H    -2.247215    -5.821680     3.595512
 C    -2.832570     1.290020     0.801093
 H    -3.070497     0.507871     1.522561
 C    -1.859990     2.020756    -1.261723
 H    -1.307595     1.808791    -2.180979
 C    -3.182817     2.599110     1.101812
 H    -3.693551     2.845545     2.034869
 C    -2.206558     3.337816    -0.977390
 H    -1.923943     4.124116    -1.676968
 C    -2.874809     3.636230     0.215086
 O    -3.227670     4.881968     0.596857
 C    -2.896814     5.959487    -0.239930
 H    -3.376042     5.868075    -1.230115
 H    -3.275208     6.864519     0.252269
 H    -1.804576     6.048102    -0.368938
 H     1.888176    -2.254133     0.984453
 H     0.949246    -1.057798     1.877683
 C     3.100716    -0.887075     2.099507
 C     3.144588     0.179706     3.005927
 H     2.248469     0.777364     3.181994
 C     4.269663    -1.633315     1.898032
 H     4.255698    -2.464130     1.187803
 C     4.324752     0.500252     3.674337
 H     4.337448     1.339216     4.374619
 C     5.449467    -1.315008     2.563227
 H     6.350544    -1.905244     2.380248
 C     5.483640    -0.241368     3.452024
 H     6.409730     0.014335     3.972335
 C     4.324214     0.800330    -0.274641
 H     3.956292     1.579027     0.396075
 C     3.951659    -1.146731    -1.630272
 H     3.274081    -1.892455    -2.049428
 C     5.676939     0.748215    -0.564501
 H     6.374156     1.477152    -0.147707
 C     5.314069    -1.221318    -1.920071
 H     5.678282    -2.020997    -2.565343
 C     6.186627    -0.266427    -1.387672
 O     7.515532    -0.243525    -1.607942
 C     8.081965    -1.234373    -2.417937
 H     7.673255    -1.210734    -3.443643
 H     9.159143    -1.028945    -2.460977
 H     7.928242    -2.245092    -1.999832
 C     1.659940     2.532866    -0.580277
 H     2.237658     2.353130    -1.490568
 C     0.529117     1.718290     1.368455
 H     0.178338     0.903141     2.004627
 C     1.295095     3.829509    -0.257989
 H     1.579238     4.672268    -0.891143
 C     0.155302     3.018184     1.709138
 H    -0.460433     3.178643     2.593378
 C     0.538496     4.084503     0.894117
 O     0.208458     5.373899     1.123796
 C    -0.462554     5.693217     2.314826
 H     0.111034     5.369741     3.200768
 H    -0.558583     6.786470     2.335237
 H    -1.470575     5.247072     2.347256
