  72
scf done:    -2968.172955
 C    -2.509637    -1.552858    -1.793049
 H    -3.354426    -2.100755    -1.360235
 H    -2.803947    -0.648657    -2.337609
 C    -1.357512    -2.266091    -2.205059
 H    -1.328576    -3.355458    -2.091910
 H    -0.785171    -1.901074    -3.064598
 H    -0.571757    -0.107702    -1.377102
Co    -0.987825    -1.248853    -0.511851
 C    -2.146378     1.935709    -0.238854
 C    -3.680198    -0.103470     1.075871
 C    -1.236366     0.869340     2.251480
 C     1.858860     0.053552     0.632288
 C     1.982142    -2.793588     0.232357
 C     1.964846    -1.026104    -2.079978
 P     1.153209    -1.281040    -0.433240
 P    -1.934082     0.318404     0.625232
 C    -1.311490    -2.535485     0.617999
 O    -1.503932    -3.377504     1.382968
 H    -2.797715     2.592162     0.362664
 H    -2.690573     1.690101    -1.164734
 C    -0.837181     2.639891    -0.559298
 H    -0.318084     2.894441     0.380614
 H    -0.181036     1.932209    -1.096853
 C    -0.964580     3.917244    -1.393277
 H    -1.647931     4.604057    -0.858493
 C     0.394482     4.599848    -1.504079
 H     0.813175     4.830450    -0.511721
 H     0.329663     5.541571    -2.070730
 H     1.115872     3.947331    -2.024451
 C    -1.550655     3.649012    -2.774942
 H    -1.610054     4.575284    -3.367091
 H    -2.565340     3.227132    -2.722543
 H    -0.922076     2.934127    -3.332140
 H    -3.637068    -1.112242     1.518269
 C    -4.451909     0.847484     1.975682
 H    -4.505699     1.865113     1.559247
 H    -4.004076     0.921463     2.978368
 H    -4.190493    -0.236066     0.108213
 H    -5.487709     0.498361     2.109469
 H    -1.870062     1.676287     2.656450
 C    -1.079132    -0.260765     3.255204
 H    -0.428157    -1.055040     2.859733
 H    -2.044107    -0.730337     3.501596
 H    -0.256549     1.322532     2.037802
 H    -0.637732     0.101421     4.196430
 H     1.507054    -0.190519     1.649804
 H     1.301791     0.953293     0.332506
 C     3.352281     0.337514     0.647992
 H     3.915019    -0.591375     0.841329
 H     3.674744     0.692314    -0.346587
 C     3.773039     1.381720     1.688259
 H     3.461663     1.002792     2.680401
 C     5.289462     1.536229     1.700154
 H     5.791441     0.573948     1.886624
 H     5.616704     2.243154     2.478198
 H     5.651526     1.918215     0.730909
 C     3.091468     2.728544     1.467933
 H     3.441922     3.473319     2.198937
 H     1.997378     2.663454     1.565200
 H     3.312300     3.120694     0.460525
 H     1.678856    -2.856237     1.291257
 C     1.589034    -4.067679    -0.500263
 H     1.857092    -4.025861    -1.567275
 H     0.505338    -4.240153    -0.444087
 H     3.075853    -2.656185     0.222861
 H     2.093909    -4.943822    -0.065191
 H     1.854938     0.053519    -2.280698
 C     3.399641    -1.485235    -2.290477
 H     3.500082    -2.574401    -2.173651
 H     4.106139    -1.013122    -1.594482
 H     1.298782    -1.520162    -2.802829
 H     3.731615    -1.239835    -3.311686
