 106
scf done:    -4261.276242
 C    -1.012822    -1.608765    -2.943734
 H    -1.542755    -2.565463    -2.878342
 H    -1.569156    -0.837027    -3.486802
 C     0.397598    -1.601789    -2.975371
 H     0.945036    -2.548548    -2.926951
 H     0.926035    -0.812573    -3.520342
 H    -0.220777     0.405691    -1.771233
Co    -0.268415    -0.953112    -1.180738
 C    -2.759032     1.265673    -1.576272
 C    -3.433657    -0.974299     0.122875
 C    -1.670230     1.026922     1.112198
 C     1.633067     0.235446     1.344292
 C     3.058132    -1.462123    -0.501489
 C     2.331685     1.164282    -1.325900
 P     1.649239    -0.291077    -0.450024
 P    -1.993930     0.034997    -0.395031
 C    -0.362001    -2.371629    -0.160995
 O    -0.426550    -3.226670     0.611431
 H    -2.043623     2.099976    -1.629915
 H    -2.701138     0.764599    -2.550902
 C    -4.145913     1.733740    -1.263966
 C    -4.345258     2.798908    -0.376616
 H    -3.477526     3.308817     0.045830
 C    -5.271157     1.086139    -1.818044
 C    -5.123113    -0.042075    -2.796550
 H    -4.581792    -0.891582    -2.353796
 H    -4.562608     0.268810    -3.693242
 H    -6.105951    -0.405504    -3.126133
 C    -5.622699     3.209736    -0.006761
 H    -5.747915     4.039254     0.693204
 C    -6.547654     1.513724    -1.439071
 H    -7.418433     1.006670    -1.863593
 C    -6.732803     2.557101    -0.536107
 H    -7.742872     2.864146    -0.254372
 C    -4.462945    -0.464550     0.934334
 H    -4.396460     0.552530     1.325800
 C    -3.561253    -2.278074    -0.358274
 H    -2.776334    -2.685218    -0.997923
 C    -5.571597    -1.232866     1.245171
 H    -6.375710    -0.840134     1.869888
 C    -4.672625    -3.064095    -0.055678
 H    -4.730984    -4.078242    -0.450925
 C    -5.689146    -2.540433     0.749944
 O    -6.802434    -3.211236     1.100859
 C    -6.974782    -4.521680     0.639344
 H    -6.173024    -5.191844     0.996363
 H    -7.934647    -4.872688     1.038964
 H    -7.009320    -4.567549    -0.463569
 C    -1.661831     0.385739     2.363225
 H    -2.007052    -0.648725     2.440446
 C    -1.207681     2.342752     1.056876
 H    -1.185107     2.876731     0.104336
 C    -1.200543     1.029242     3.499167
 H    -1.183729     0.527506     4.468471
 C    -0.731083     3.004423     2.190766
 H    -0.369909     4.028905     2.097456
 C    -0.712539     2.342534     3.423338
 O    -0.251712     2.876656     4.568118
 C     0.384085     4.123864     4.521154
 H    -0.304379     4.926948     4.203689
 H     0.730540     4.338863     5.539739
 H     1.255354     4.108196     3.842689
 H     0.974573     1.113940     1.374508
 H     1.076099    -0.567829     1.844139
 C     2.934469     0.516856     2.022410
 C     3.528668     1.779253     1.894715
 H     3.011012     2.552372     1.323198
 C     3.596431    -0.480088     2.771006
 C     2.996573    -1.842465     2.961222
 H     2.850706    -2.358585     1.999702
 H     2.009779    -1.786487     3.449013
 H     3.644244    -2.471882     3.586537
 C     4.768891     2.059768     2.461095
 H     5.214429     3.049832     2.337378
 C     4.838575    -0.179026     3.339560
 H     5.353695    -0.953043     3.915200
 C     5.432109     1.071044     3.184127
 H     6.406932     1.273561     3.634394
 C     4.376150    -1.049927    -0.226235
 H     4.593187     0.003952    -0.042634
 C     2.835893    -2.817542    -0.747855
 H     1.826980    -3.159098    -0.980169
 C     5.414089    -1.964659    -0.176913
 H     6.434747    -1.649666     0.047209
 C     3.870425    -3.751782    -0.698026
 H     3.648758    -4.801228    -0.892117
 C     5.170259    -3.327568    -0.403919
 O     6.237699    -4.144311    -0.326231
 C     6.054715    -5.516087    -0.538508
 H     5.676778    -5.728044    -1.554255
 H     7.038935    -5.987016    -0.421167
 H     5.358299    -5.955995     0.197014
 C     1.832943     2.448411    -1.055840
 H     1.097094     2.588820    -0.261383
 C     3.239038     1.025981    -2.376384
 H     3.633640     0.038362    -2.625335
 C     2.247743     3.550602    -1.784002
 H     1.867343     4.551347    -1.569962
 C     3.662089     2.125687    -3.125807
 H     4.374264     1.971527    -3.936740
 C     3.171820     3.400141    -2.829005
 O     3.520217     4.525498    -3.483631
 C     4.428812     4.432882    -4.544280
 H     4.046494     3.791701    -5.358201
 H     4.567665     5.450663    -4.930483
 H     5.407015     4.040019    -4.214575
