 100
scf done:    -4182.845845
 C     0.835579    -3.653030     0.614670
 H     1.678031    -4.043913     0.035809
 H     1.040559    -3.544828     1.683990
 C    -0.486111    -3.851764     0.171668
 H    -0.671809    -4.416057    -0.747933
 H    -1.307508    -3.887754     0.891991
 H    -0.426510    -1.663487     1.177201
Co     0.096189    -1.940800    -0.179536
 C     1.293999     0.339537     2.002331
 O     3.106612    -1.003825     0.671138
 O     1.664814     0.672686    -0.731580
 C    -1.865711    -0.105756    -2.232939
 O    -3.109497    -1.402876    -0.313227
 O    -1.579172     0.563220     0.432102
 P    -1.583487    -0.781900    -0.548740
 P     1.527028    -0.533705     0.408507
 C     0.574733    -2.230876    -1.846745
 O     0.833539    -2.414009    -2.950054
 H     1.250066    -0.490433     2.726626
 H     0.273382     0.742914     1.924157
 C     2.282797     1.385583     2.418328
 C     1.962812     2.743399     2.312438
 H     0.976725     3.034371     1.943201
 C     3.544910     1.030492     2.909676
 H     3.806822    -0.025828     2.995323
 C     2.889087     3.724253     2.656110
 H     2.625115     4.778836     2.550344
 C     4.468491     2.009824     3.265318
 H     5.448952     1.715377     3.648254
 C     4.146833     3.360485     3.133308
 H     4.874628     4.128648     3.405619
 C     3.752939    -1.887860    -0.150021
 C     3.736103    -1.736962    -1.534108
 H     3.192700    -0.899359    -1.976033
 C     4.454055    -2.937367     0.444771
 H     4.448085    -3.031748     1.531848
 C     4.395727    -2.658399    -2.356987
 C     4.323031    -2.506688    -3.847686
 H     4.690789    -1.518564    -4.165785
 H     4.917225    -3.274329    -4.362263
 H     3.279774    -2.590007    -4.191340
 C     5.127232    -3.841847    -0.368308
 H     5.677780    -4.669241     0.085839
 C     5.093346    -3.710581    -1.757572
 H     5.615777    -4.436463    -2.385620
 C     2.405632     1.825987    -0.755725
 C     3.762103     1.853345    -0.442213
 H     4.258967     0.938181    -0.120620
 C     1.749978     2.983476    -1.179113
 H     0.694483     2.924152    -1.450125
 C     4.476023     3.054939    -0.506986
 C     5.929846     3.075861    -0.137538
 H     6.057029     2.853410     0.933729
 H     6.494274     2.314493    -0.697622
 H     6.384214     4.056035    -0.338301
 C     2.458710     4.177683    -1.249387
 H     1.951334     5.088566    -1.576574
 C     3.809582     4.217471    -0.907814
 H     4.358377     5.161004    -0.961216
 H    -1.856957    -1.005687    -2.870421
 H    -0.929245     0.433770    -2.449408
 C    -3.067816     0.745544    -2.510872
 C    -2.933706     2.127353    -2.682159
 H    -1.941764     2.581849    -2.622121
 C    -4.345498     0.179595    -2.598053
 H    -4.463373    -0.897364    -2.465276
 C    -4.048567     2.930840    -2.904498
 H    -3.923637     4.009741    -3.019961
 C    -5.460792     0.980311    -2.829598
 H    -6.451005     0.522369    -2.894893
 C    -5.317616     2.359570    -2.978378
 H    -6.193776     2.988035    -3.155335
 C    -3.455294    -2.169936     0.765662
 C    -3.118861    -1.797247     2.065572
 H    -2.556370    -0.876868     2.232085
 C    -4.188872    -3.331896     0.523923
 H    -4.435290    -3.599107    -0.504893
 C    -3.489772    -2.601276     3.150175
 C    -3.094106    -2.202568     4.542137
 H    -3.507329    -2.890491     5.292565
 H    -1.997864    -2.199422     4.653259
 H    -3.444859    -1.186302     4.780462
 C    -4.570090    -4.124132     1.600483
 H    -5.141479    -5.038183     1.422190
 C    -4.218914    -3.767914     2.903271
 H    -4.516715    -4.403966     3.740525
 C    -2.404066     1.658823     0.453161
 C    -3.786888     1.545174     0.568746
 H    -4.246485     0.556976     0.591113
 C    -1.789952     2.911327     0.425014
 H    -0.703385     2.965952     0.343710
 C    -4.584522     2.693241     0.620818
 C    -6.076706     2.560513     0.695894
 H    -6.477236     2.215218    -0.270890
 H    -6.375635     1.821867     1.454830
 H    -6.556970     3.518555     0.939009
 C    -2.580002     4.054010     0.490967
 H    -2.107417     5.039053     0.469267
 C    -3.966729     3.947995     0.580924
 H    -4.580798     4.850924     0.625606
