  80
scf done:    -3721.069118
 C    -0.565094    -2.594589    -2.505204
 H    -0.150894    -3.547127    -2.846361
 H    -1.653429    -2.618893    -2.370886
 C     0.077267    -1.381770    -2.826693
 H     0.985745    -1.382877    -3.434853
 H    -0.516072    -0.466194    -2.904153
 H     1.630485    -2.572080    -1.467789
Co     0.461440    -1.894491    -0.909783
 C    -2.720734    -1.982283     0.444919
 O    -0.929063    -0.182167     1.382612
 O    -1.970838     0.186029    -0.958083
 C     2.156881     0.181046     1.231452
 O     3.445064    -1.001947    -0.836856
 O     2.016515     0.973277    -1.351486
 P     1.925152    -0.455669    -0.467425
 P    -1.258439    -0.996750    -0.034698
 C     0.670188    -3.277189     0.111520
 O     0.897139    -4.221347     0.729423
 H    -3.487542    -1.283965     0.820674
 H    -3.131955    -2.419605    -0.479827
 C    -2.417798    -3.067322     1.471245
 H    -1.840828    -2.636004     2.307117
 H    -1.762199    -3.827697     1.021454
 C    -3.681952    -3.725883     2.000595
 H    -4.337192    -2.994408     2.500951
 H    -4.264096    -4.183210     1.185017
 H    -3.445299    -4.517358     2.727238
 C    -1.725958     0.766330     1.964160
 C    -2.704600     0.403943     2.890631
 H    -2.837933    -0.647446     3.150576
 C    -1.515658     2.107333     1.641115
 H    -0.747513     2.367069     0.912651
 C    -3.493008     1.393849     3.475910
 H    -4.262121     1.111036     4.198482
 C    -2.305805     3.087768     2.234935
 H    -2.141013     4.135234     1.971959
 C    -3.301183     2.735754     3.147501
 H    -3.922325     3.506787     3.608450
 C    -3.285482     0.332619    -1.313596
 C    -4.148235     1.109439    -0.539340
 H    -3.777912     1.578346     0.372859
 C    -3.731983    -0.260797    -2.495628
 H    -3.030385    -0.848699    -3.091890
 C    -5.469194     1.276607    -0.951323
 H    -6.144467     1.884004    -0.343980
 C    -5.054814    -0.086585    -2.895794
 H    -5.402691    -0.552131    -3.820958
 C    -5.928657     0.679408    -2.124548
 H    -6.965461     0.814090    -2.440201
 H     3.104028     0.744819     1.263596
 H     1.339595     0.894565     1.418399
 C     2.132714    -0.921197     2.282239
 H     2.879719    -1.693354     2.033359
 H     1.153379    -1.421178     2.243428
 C     2.385115    -0.385642     3.681831
 H     3.371723     0.099675     3.753831
 H     1.625252     0.362223     3.959813
 H     2.352118    -1.191170     4.431024
 C     4.603601    -0.344667    -0.518022
 C     5.414329    -0.875025     0.487209
 H     5.093382    -1.784886     0.997821
 C     4.995251     0.804189    -1.209169
 H     4.351487     1.190447    -1.998910
 C     6.613035    -0.244694     0.812493
 H     7.245690    -0.663330     1.598895
 C     6.194939     1.428196    -0.871779
 H     6.500763     2.327409    -1.412270
 C     7.005242     0.911937     0.139002
 H     7.944757     1.405819     0.396526
 C     1.295067     2.108152    -1.128136
 C     1.806015     3.103081    -0.288134
 H     2.767398     2.941188     0.202419
 C     0.082635     2.307726    -1.790560
 H    -0.298213     1.522520    -2.440888
 C     1.094750     4.287582    -0.106986
 H     1.499652     5.062615     0.548181
 C    -0.622257     3.494277    -1.602343
 H    -1.575716     3.636931    -2.116160
 C    -0.121924     4.487676    -0.760644
 H    -0.676208     5.418006    -0.617619
