  96
scf done:    -3882.036901
 C    -0.721643    -3.867401    -1.152071
 H    -1.275398    -4.504278    -0.452138
 H    -1.247744    -3.694517    -2.096323
 C     0.694876    -3.889550    -1.134469
 H     1.214042    -4.541359    -0.422425
 H     1.245449    -3.733495    -2.068517
 H     0.040627    -1.682046    -1.739255
Co     0.004910    -2.182424    -0.341328
 C    -1.853903     0.446500    -1.450618
 C    -3.334064    -1.926045    -0.412224
 C    -1.949146    -0.095146     1.478328
 C     1.861952     0.062976     1.402922
 C     3.329919    -1.925603    -0.264285
 C     1.904820     0.355192    -1.554667
 P     1.752906    -0.920412    -0.194502
 P    -1.760467    -0.935157    -0.190577
 C     0.033018    -2.716618     1.323048
 O     0.080432    -3.019298     2.434473
 H    -1.212789     0.073436    -2.260993
 H    -1.335352     1.302263    -0.992484
 C    -3.173753     0.871189    -2.016595
 C    -3.884746     1.962484    -1.504229
 H    -3.474381     2.529541    -0.668364
 C    -3.712775     0.181822    -3.112727
 H    -3.154585    -0.651724    -3.549129
 C    -5.111566     2.332468    -2.050028
 H    -5.650262     3.184386    -1.628220
 C    -4.940237     0.549599    -3.660132
 H    -5.342134    -0.003527    -4.512399
 C    -5.649542     1.624406    -3.124164
 H    -6.612589     1.915182    -3.550307
 H    -3.018480    -2.941905    -0.139524
 H    -3.521449    -1.940767    -1.496175
 C    -4.570630    -1.560102     0.349166
 C    -5.572911    -0.751363    -0.200082
 H    -5.464214    -0.372997    -1.216570
 C    -4.755338    -2.052997     1.649676
 H    -4.000446    -2.715094     2.084431
 C    -6.708420    -0.423560     0.536924
 H    -7.473628     0.213055     0.086194
 C    -5.888783    -1.723765     2.390533
 H    -6.008712    -2.117674     3.402625
 C    -6.869179    -0.899928     1.837712
 H    -7.759365    -0.639978     2.415320
 H    -0.918942    -0.051719     1.855845
 H    -2.481539    -0.819494     2.112652
 C    -2.564357     1.265857     1.581047
 C    -3.921545     1.450335     1.870456
 H    -4.560650     0.583006     2.035672
 C    -1.764474     2.404801     1.406251
 H    -0.692712     2.284289     1.225051
 C    -4.465349     2.730166     1.950083
 H    -5.528664     2.846379     2.173083
 C    -2.306157     3.686414     1.480331
 H    -1.661586     4.557326     1.338445
 C    -3.665096     3.853968     1.745872
 H    -4.094725     4.856629     1.805939
 H     1.213289    -0.488731     2.097800
 H     1.363367     1.021241     1.193118
 C     3.185618     0.292668     2.064370
 C     3.916983     1.470370     1.872142
 H     3.519255     2.253144     1.225650
 C     3.708073    -0.683952     2.924909
 H     3.131477    -1.594413     3.114917
 C     5.147984     1.652969     2.497602
 H     5.703021     2.578816     2.328279
 C     4.940659    -0.504159     3.549453
 H     5.330225    -1.278983     4.214073
 C     5.670082     0.664810     3.331748
 H     6.636768     0.808739     3.820030
 H     3.014321    -2.832204    -0.797017
 H     3.527494    -2.226113     0.775562
 C     4.559801    -1.365032    -0.908338
 C     5.571473    -0.744593    -0.165604
 H     5.474367    -0.666186     0.917388
 C     4.729296    -1.476665    -2.296372
 H     3.966291    -1.989565    -2.889559
 C     6.701230    -0.226240    -0.793991
 H     7.474313     0.257353    -0.191931
 C     5.857410    -0.956629    -2.928007
 H     5.966285    -1.053207    -4.010944
 C     6.846826    -0.321167    -2.177757
 H     7.732687     0.087758    -2.669378
 H     0.865293     0.501931    -1.872760
 H     2.409477    -0.166400    -2.381450
 C     2.539053     1.683820    -1.280388
 C     3.894085     1.929975    -1.531251
 H     4.518724     1.138092    -1.944389
 C     1.758139     2.735266    -0.778081
 H     0.687635     2.579092    -0.617705
 C     4.454726     3.175458    -1.258197
 H     5.516264     3.339346    -1.458442
 C     2.316511     3.981031    -0.499258
 H     1.686538     4.782765    -0.106314
 C     3.673457     4.203832    -0.731983
 H     4.116267     5.178804    -0.515447
