 114
scf done:    -3817.950112
 C    -1.212777    -1.045467    -2.932345
 H    -1.732150    -2.009760    -2.946924
 H    -1.860806    -0.201386    -3.193613
 C     0.155240    -0.989731    -3.280142
 H     0.674616    -1.916967    -3.546439
 H     0.544014    -0.104111    -3.789775
 H    -0.207015     0.711780    -1.656659
Co    -0.082545    -0.711676    -1.292382
 C    -2.583604     1.381398    -0.714743
 C    -3.308752    -1.436587    -0.348367
 C    -1.877370    -0.012590     1.743181
 C     2.155395    -0.600890     1.265283
 C     3.409640    -0.110487    -1.318069
 C     1.546906     1.964792    -0.175755
 P     1.765190     0.123449    -0.446650
 P    -1.869891    -0.246197    -0.110409
 C     0.254623    -2.362644    -0.821659
 O     0.540072    -3.434994    -0.506484
 H    -1.874613     2.139032    -0.346277
 H    -2.428421     1.343003    -1.799465
 C    -3.993051     1.749004    -0.368227
 C    -4.288939     2.280698     0.894384
 H    -3.471346     2.475037     1.591937
 C    -5.048153     1.553790    -1.287044
 C    -4.801102     1.092142    -2.696019
 H    -4.328796     0.099326    -2.743125
 H    -4.132727     1.783954    -3.233733
 H    -5.743341     1.036571    -3.257963
 C    -5.595665     2.555203     1.285754
 H    -5.794816     2.959113     2.281136
 C    -6.357181     1.829925    -0.876078
 H    -7.174772     1.668081    -1.584039
 C    -6.641276     2.310632     0.399521
 H    -7.674744     2.511104     0.691395
 H    -3.685109    -1.127822    -1.339344
 C    -4.473693    -1.323990     0.642275
 H    -4.796126    -0.283491     0.771224
 H    -4.143373    -1.679803     1.633915
 C    -5.658005    -2.174089     0.190873
 H    -6.482150    -2.079319     0.916610
 H    -6.041507    -1.773373    -0.765093
 C    -5.263805    -3.634444     0.013083
 H    -6.117023    -4.225769    -0.357644
 H    -4.997305    -4.057819     0.998752
 C    -4.071506    -3.769127    -0.925717
 H    -4.374834    -3.464008    -1.944143
 H    -3.754028    -4.821913    -1.000649
 C    -2.894565    -2.903509    -0.485701
 H    -2.502585    -3.277954     0.475544
 H    -2.074216    -2.998104    -1.206512
 H    -2.927449     0.176174     2.026184
 C    -1.047659     1.179434     2.215873
 H    -1.389824     2.113957     1.745127
 H    -0.007234     1.042783     1.888361
 C    -1.075709     1.327187     3.733406
 H    -0.450302     2.182641     4.037936
 H    -2.106011     1.564043     4.056079
 C    -0.612706     0.050918     4.425304
 H    -0.672897     0.161759     5.520008
 H     0.453134    -0.124689     4.191022
 C    -1.431248    -1.148049     3.963420
 H    -2.475831    -1.026244     4.303106
 H    -1.058517    -2.073411     4.431663
 C    -1.415417    -1.292266     2.444922
 H    -0.395566    -1.536717     2.104579
 H    -2.045651    -2.142771     2.146634
 H     1.627704     0.039451     1.984538
 H     1.612227    -1.554632     1.264061
 C     3.565084    -0.827396     1.730037
 C     4.215523     0.135169     2.513447
 H     3.675580     1.041739     2.792915
 C     4.252263    -2.021835     1.418059
 C     3.579488    -3.160876     0.707216
 H     3.140574    -2.872890    -0.258683
 H     2.748419    -3.570239     1.303698
 H     4.288685    -3.978574     0.520198
 C     5.532249    -0.025639     2.932381
 H     6.011550     0.748535     3.536102
 C     5.580952    -2.163070     1.836343
 H     6.114023    -3.083725     1.583212
 C     6.228729    -1.176756     2.574536
 H     7.266814    -1.317148     2.884623
 H     3.690955    -1.123481    -0.982395
 C     4.550896     0.821467    -0.899112
 H     4.645151     0.866696     0.192300
 H     4.336176     1.845388    -1.246950
 C     5.874733     0.365337    -1.506069
 H     6.681837     1.049628    -1.197115
 H     6.133465    -0.625245    -1.090652
 C     5.792510     0.281347    -3.024636
 H     6.743384    -0.084014    -3.445972
 H     5.640577     1.296608    -3.434871
 C     4.637154    -0.611519    -3.459314
 H     4.850254    -1.651829    -3.151866
 H     4.550454    -0.626512    -4.558107
 C     3.310269    -0.180075    -2.841214
 H     3.015998     0.804607    -3.244606
 H     2.515944    -0.879804    -3.121977
 H     0.482096     1.989713     0.107757
 C     1.636539     2.737041    -1.495382
 H     1.046192     2.216216    -2.265551
 H     2.679646     2.759911    -1.850502
 C     1.138656     4.167797    -1.321587
 H     1.231806     4.717955    -2.271973
 H     0.060202     4.146709    -1.079412
 C     1.892568     4.887949    -0.210156
 H     1.499489     5.908371    -0.072661
 H     2.951696     5.000047    -0.505607
 C     1.819219     4.110058     1.098066
 H     0.770659     4.088586     1.448029
 H     2.397855     4.620751     1.885015
 C     2.314183     2.673658     0.936958
 H     3.394980     2.675465     0.726023
 H     2.179760     2.141759     1.890775
