  84
scf done:    -5562.788387
 C    -0.594581    -2.007864    -3.215278
 H    -1.078530    -2.990017    -3.175305
 H    -1.138783    -1.269580    -3.811803
 C     0.810126    -1.917084    -3.121235
 H     1.401859    -2.831589    -3.016566
 H     1.343056    -1.110899    -3.634571
 H    -0.098994     0.055574    -2.054136
Co    -0.057774    -1.284916    -1.409849
 C    -3.025857     0.098141    -2.162276
 C    -3.104632    -1.340634     0.268355
 C    -1.678846     1.157980     0.180632
 C     1.524671    -0.708246     1.568756
 C     3.268344    -0.965925    -0.682817
 C     1.776290     1.422359    -0.448150
 P     1.567726    -0.392838    -0.290639
 P    -1.896780    -0.405584    -0.755200
 C     0.007143    -2.801872    -0.541963
 O     0.103825    -3.774289     0.068201
 H    -3.042694    -0.789431    -2.810079
 H    -2.492341     0.879864    -2.723546
 C    -4.416063     0.498840    -1.783217
 C    -4.726992     1.801142    -1.371024
 H    -3.952049     2.569821    -1.372781
 C    -5.438283    -0.459679    -1.778030
 H    -5.212270    -1.482439    -2.091363
 C    -6.014012     2.127610    -0.947925
 H    -6.234408     3.149201    -0.628687
 C    -6.725142    -0.136342    -1.358162
 H    -7.502907    -0.903603    -1.355919
 C    -7.016895     1.159301    -0.934218
 H    -8.025110     1.415887    -0.600588
 C    -3.168385    -2.727612     0.099668
 H    -2.447208    -3.226526    -0.550101
 C    -4.063520    -0.723232     1.084080
 H    -4.071938     0.362143     1.198798
 C    -4.147181    -3.488152     0.733833
 H    -4.191214    -4.569873     0.598691
 C    -5.039556    -1.469634     1.734125
 H    -5.786274    -0.983423     2.363500
 C    -5.076362    -2.851819     1.553966
Cl    -6.296801    -3.785174     2.350636
 C    -1.463609     2.364792    -0.497533
 H    -1.467348     2.390854    -1.588993
 C    -1.593460     1.160801     1.578257
 H    -1.731966     0.231205     2.135675
 C    -1.222688     3.548577     0.190416
 H    -1.048219     4.482616    -0.345647
 C    -1.342699     2.335972     2.282941
 H    -1.282534     2.332263     3.372633
 C    -1.168015     3.527051     1.582579
Cl    -0.824346     4.987476     2.447718
 H     0.945948    -1.637702     1.664181
 H     0.905217     0.086561     2.009261
 C     2.848463    -0.860715     2.254453
 C     3.502825     0.203650     2.884366
 H     3.017992     1.179019     2.955204
 C     3.496805    -2.103431     2.216844
 H     2.994339    -2.952048     1.745879
 C     4.776442     0.042214     3.428042
 H     5.267289     0.889038     3.913828
 C     4.771418    -2.266450     2.748754
 H     5.261913    -3.240888     2.690384
 C     5.421848    -1.189445     3.350623
 H     6.424793    -1.313467     3.765370
 C     3.465102    -2.293400    -1.073843
 H     2.601622    -2.935040    -1.252563
 C     4.389516    -0.158015    -0.456881
 H     4.262018     0.880704    -0.145650
 C     4.746297    -2.816913    -1.219470
 H     4.897461    -3.855370    -1.518033
 C     5.675712    -0.666207    -0.598685
 H     6.548537    -0.039881    -0.409001
 C     5.846268    -1.998592    -0.972618
Cl     7.445107    -2.643581    -1.130129
 C     1.818092     2.316994     0.620898
 H     1.703291     1.964503     1.644264
 C     1.889124     1.934343    -1.749875
 H     1.846477     1.250809    -2.601478
 C     1.962435     3.687759     0.411930
 H     1.957932     4.382791     1.252598
 C     2.033927     3.296473    -1.976851
 H     2.114328     3.690668    -2.991158
 C     2.061559     4.170328    -0.887862
Cl     2.180866     5.875586    -1.162226
