  60
scf done:    -2811.052562
 C     2.051175     2.190943     0.393553
 H     2.233280     2.592673     1.396554
 H     2.938362     1.741297    -0.063823
 C     1.074088     2.796394    -0.433569
 H     0.505480     3.654958    -0.058976
 H     1.219960     2.804231    -1.519120
 H     1.032045     0.417842    -0.955503
Co     0.417968     1.028123     0.259180
 C     2.959353    -1.108520     0.840002
 C     0.885948    -1.249595     2.753620
 C     0.486150    -2.375622     0.190510
 C    -2.759717    -0.088591    -0.017924
 C    -2.191816     2.384635    -1.368252
 C    -1.275546    -0.059248    -2.488309
 P    -1.389170     0.808945    -0.877144
 P     1.137652    -0.845551     0.977587
 C    -0.359296     1.562887     1.727122
 O    -0.896059     1.861572     2.702737
 H     3.220656    -2.040665     1.372227
 H     3.410801    -0.276237     1.403454
 C     3.485515    -1.144338    -0.586395
 H     3.067935    -2.025622    -1.103291
 H     3.103695    -0.265641    -1.135399
 C     5.011858    -1.192487    -0.705141
 H     5.369606    -2.041143    -0.091179
 C     5.419549    -1.456169    -2.150355
 H     4.987757    -2.396780    -2.526902
 H     6.513674    -1.521346    -2.255474
 H     5.069834    -0.642745    -2.807851
 C     5.673948     0.077925    -0.182740
 H     6.770209     0.015477    -0.263974
 H     5.433439     0.271357     0.873296
 H     5.345516     0.955788    -0.763923
 H     1.364319    -0.471675     3.366791
 H    -0.190286    -1.238192     2.980883
 H     1.304694    -2.231870     3.022905
 H     0.981621    -3.278514     0.580895
 H    -0.594229    -2.454608     0.380962
 H     0.638127    -2.320897    -0.896476
 H    -2.937221     0.481318     0.911396
 H    -2.313211    -1.042370     0.306167
 C    -4.065284    -0.323160    -0.760923
 H    -4.451712     0.637109    -1.142273
 H    -3.884877    -0.953121    -1.650640
 C    -5.164465    -0.979848     0.081520
 H    -5.328117    -0.337162     0.967192
 C    -6.470123    -1.038493    -0.703014
 H    -6.786624    -0.037379    -1.035190
 H    -7.284764    -1.465327    -0.097743
 H    -6.359366    -1.668071    -1.601882
 C    -4.766518    -2.366133     0.576521
 H    -5.577906    -2.825152     1.162099
 H    -3.874184    -2.338495     1.219635
 H    -4.549157    -3.036751    -0.272312
 H    -2.437713     2.955444    -0.460715
 H    -1.468821     2.974808    -1.948713
 H    -3.102971     2.237360    -1.967700
 H    -0.949766    -1.095468    -2.318200
 H    -2.227973    -0.061408    -3.039039
 H    -0.504929     0.440679    -3.091929
