 110
scf done:    -3665.629553
 C    -0.871705     0.181327    -3.339175
 H    -1.470905    -0.638088    -3.752956
 H    -1.383168     1.150457    -3.358999
 C     0.539963     0.142862    -3.459768
 H     1.013510    -0.703984    -3.969028
 H     1.093359     1.081365    -3.564138
 H     0.067547     1.235435    -1.335932
Co    -0.018164    -0.235289    -1.566816
 C    -2.533776     1.651054    -0.396993
 C    -3.178916    -1.174013    -1.009721
 C    -1.755394    -0.482097     1.400482
 C     2.633385    -1.606607     0.027630
 C     3.095645     0.952638    -1.397560
 C     1.744350     0.892473     1.143336
 P     1.807867     0.001055    -0.472464
 P    -1.819374    -0.072419    -0.398960
 C    -0.004785    -1.975232    -1.686587
 O     0.020013    -3.126604    -1.743614
 H    -1.843535     2.223100     0.242699
 H    -2.371627     2.018334    -1.418285
 C    -3.948594     1.832595     0.053999
 C    -4.239423     1.882948     1.423508
 H    -3.413821     1.852458     2.139549
 C    -5.007843     1.925500    -0.874000
 C    -4.757787     1.959781    -2.354949
 H    -4.191030     1.085686    -2.707904
 H    -4.174136     2.850033    -2.641418
 H    -5.704418     1.989181    -2.911370
 C    -5.548482     1.962285     1.888938
 H    -5.747322     1.989364     2.962823
 C    -6.318245     2.007120    -0.390167
 H    -7.140682     2.071947    -1.108070
 C    -6.597774     2.010488     0.974523
 H    -7.632323     2.068124     1.320706
 H    -2.679023    -2.111394    -1.305289
 H    -3.503810    -0.718933    -1.957624
 C    -4.360612    -1.485330    -0.101210
 H    -3.995252    -2.016747     0.793618
 H    -4.828647    -0.558509     0.265700
 C    -5.443430    -2.350411    -0.754756
 H    -4.956623    -3.268432    -1.135744
 C    -6.477835    -2.760914     0.287342
 H    -6.013570    -3.307052     1.123525
 H    -7.255453    -3.407854    -0.147692
 H    -6.977426    -1.871590     0.706793
 C    -6.116409    -1.650266    -1.930598
 H    -6.899404    -2.285384    -2.373074
 H    -5.405100    -1.402970    -2.732799
 H    -6.590093    -0.711037    -1.600320
 H    -2.763314    -0.410094     1.840050
 H    -1.139943     0.297356     1.877005
 C    -1.159954    -1.863778     1.630229
 H    -1.708085    -2.606100     1.024707
 H    -0.130755    -1.875012     1.232643
 C    -1.146352    -2.344489     3.082244
 H    -2.192015    -2.338548     3.444231
 C    -0.631340    -3.777415     3.153312
 H    -1.233330    -4.453797     2.526990
 H    -0.651137    -4.163236     4.184262
 H     0.410580    -3.835819     2.795825
 C    -0.333328    -1.429926     3.990630
 H    -0.329300    -1.800684     5.027182
 H    -0.729272    -0.404073     4.009174
 H     0.717168    -1.379829     3.655010
 H     1.948499    -2.026407     0.782856
 H     2.540980    -2.258677    -0.850824
 C     4.036551    -1.582755     0.546140
 C     4.281836    -1.247405     1.883968
 H     3.431936    -1.070901     2.548436
 C     5.131470    -1.872494    -0.296972
 C     4.934153    -2.315508    -1.718616
 H     4.373072    -1.579275    -2.312653
 H     4.370360    -3.261266    -1.770126
 H     5.900131    -2.475621    -2.216378
 C     5.576526    -1.131695     2.381789
 H     5.738546    -0.858327     3.427043
 C     6.426301    -1.754387     0.219010
 H     7.275030    -1.971353    -0.435657
 C     6.658132    -1.372531     1.538730
 H     7.681446    -1.282381     1.910417
 H     2.532974     1.758579    -1.896122
 H     3.411997     0.284846    -2.213715
 C     4.284451     1.532823    -0.642315
 H     3.917984     2.265905     0.095222
 H     4.801870     0.753493    -0.062027
 C     5.314057     2.234646    -1.534098
 H     4.779048     2.996258    -2.132999
 C     6.345394     2.951227    -0.669533
 H     5.870280     3.684293     0.001205
 H     7.086476     3.486310    -1.283526
 H     6.890596     2.228454    -0.039644
 C     5.999289     1.271992    -2.498071
 H     6.743675     1.795446    -3.117854
 H     5.286489     0.788705    -3.182865
 H     6.523266     0.477088    -1.941740
 H     2.759600     0.916950     1.571254
 H     1.130995     0.271157     1.815009
 C     1.183655     2.302064     1.036531
 H     1.738823     2.858823     0.262524
 H     0.149188     2.250508     0.660694
 C     1.217680     3.115875     2.331807
 H     2.270131     3.157720     2.671328
 C     0.752547     4.542922     2.065557
 H     1.364021     5.027953     1.288874
 H     0.807341     5.162029     2.974337
 H    -0.294393     4.553919     1.718228
 C     0.394514     2.476996     3.444068
 H     0.427727     3.083696     4.362104
 H     0.754373     1.470295     3.701598
 H    -0.664663     2.390049     3.145370
