  88
scf done:    -3577.397578
 C     0.115901    -2.307641     1.473485
 H    -0.623426    -3.085752     1.262629
 H     1.127254    -2.701065     1.625462
 C    -0.287229    -1.128801     2.135345
 H    -1.334602    -1.014292     2.426872
 H     0.392415    -0.610332     2.817935
 H    -0.029873     0.755590     0.212467
Co     0.068165    -0.734271     0.185000
 C     2.634677     0.571122     2.064362
 C     3.499560    -1.108196    -0.088937
 C     2.323027     1.408019    -0.792170
 C    -2.167181     0.374376    -1.977299
 C    -3.302558    -1.484730    -0.157140
 C    -2.573243     1.145685     0.919911
 P    -1.989036    -0.172208    -0.219743
 P     2.096602     0.007240     0.384089
 C     0.332381    -1.397276    -1.399447
 O     0.494116    -1.793111    -2.473327
 H     3.397127     1.357896     1.971915
 H     1.750389     1.028874     2.530381
 C     3.152044    -0.565162     2.941134
 H     4.079755    -0.973005     2.509442
 H     2.432612    -1.399956     2.935308
 C     3.399437    -0.112624     4.371540
 H     4.129131     0.712519     4.410019
 H     2.470659     0.245488     4.843753
 H     3.792033    -0.934404     4.989191
 C     3.163688    -2.433421    -0.386316
 H     2.114860    -2.728623    -0.324791
 C     4.856457    -0.708835    -0.148346
 C     5.339400     0.667817     0.210707
 H     5.455886     0.768490     1.302650
 H     4.652616     1.455864    -0.124980
 H     6.323971     0.860160    -0.237669
 C     4.128650    -3.367943    -0.753846
 H     3.834345    -4.394520    -0.983051
 C     5.808162    -1.660920    -0.531959
 H     6.856627    -1.355829    -0.593240
 C     5.459811    -2.975594    -0.832226
 H     6.232572    -3.689519    -1.127847
 C     2.706879     1.058625    -2.095321
 H     2.936729     0.015578    -2.324185
 C     1.996091     2.751007    -0.504092
 C     1.518515     3.211965     0.843353
 H     2.333656     3.247357     1.581004
 H     0.739315     2.543623     1.242289
 H     1.094958     4.222983     0.775339
 C     2.796119     2.010796    -3.104787
 H     3.096032     1.709017    -4.110884
 C     2.100199     3.693130    -1.535980
 H     1.850817     4.735042    -1.315884
 C     2.497534     3.340875    -2.821931
 H     2.564539     4.103151    -3.601770
 H    -1.342636     1.075003    -2.172572
 H    -1.903885    -0.540117    -2.534390
 C    -3.494116     0.912035    -2.486493
 H    -3.829269     1.760088    -1.866504
 H    -4.267058     0.134450    -2.381942
 C    -3.403699     1.349812    -3.941053
 H    -2.665478     2.157794    -4.069845
 H    -3.091138     0.514911    -4.588025
 H    -4.372245     1.717625    -4.312502
 C    -2.781654    -2.774742    -0.344845
 H    -1.698240    -2.879054    -0.435734
 C    -4.704664    -1.321270    -0.054252
 C    -5.423993    -0.011205     0.123403
 H    -4.816514     0.859694    -0.134876
 H    -5.738330     0.123237     1.170757
 H    -6.333933     0.003619    -0.495101
 C    -3.597373    -3.897748    -0.418940
 H    -3.155845    -4.885492    -0.569118
 C    -5.506298    -2.471234    -0.117904
 H    -6.590633    -2.351257    -0.036645
 C    -4.974654    -3.743440    -0.293941
 H    -5.638252    -4.610401    -0.341330
 C    -3.184365     0.715163     2.107285
 H    -3.399441    -0.347751     2.240862
 C    -2.298808     2.521423     0.749722
 C    -1.609842     3.085030    -0.458932
 H    -2.261337     3.077066    -1.345463
 H    -0.704514     2.512621    -0.709742
 H    -1.313195     4.127302    -0.281186
 C    -3.540672     1.607244     3.112125
 H    -4.014246     1.238730     4.024972
 C    -2.674851     3.403076     1.771937
 H    -2.467192     4.468678     1.640303
 C    -3.288482     2.965258     2.941024
 H    -3.563021     3.683586     3.717114
