 104
scf done:    -3587.051327
 C     0.368381    -2.100898     0.649177
 H    -0.316948    -2.867171     0.279282
 H     1.416089    -2.420765     0.647506
 C    -0.071143    -1.152769     1.595525
 H    -1.097397    -1.184878     1.973880
 H     0.628533    -0.767880     2.342844
 H    -0.396490     1.102060    -0.026914
Co     0.092601    -0.305547    -0.251300
 C     1.696729     2.112236     1.647706
 C     3.276157    -0.175744     0.892203
 C     2.504266     1.823248    -1.063181
 C    -2.476045    -1.764279    -2.053321
 C    -3.252547    -0.594772     0.466676
 C    -2.521134     1.068448    -1.786863
 P    -1.975213    -0.426126    -0.851440
 P     1.823308     0.810775     0.321808
 C     0.665187    -0.683964    -1.835524
 O     1.040669    -0.955269    -2.898365
 H     1.012958     2.869560     1.235279
 H     2.691838     2.572935     1.747465
 C     1.213800     1.636227     2.981941
 C     2.101585     1.067718     3.904337
 H     3.166688     1.016046     3.663776
 C    -0.140394     1.715191     3.325116
 H    -0.840481     2.165149     2.617806
 C     1.645047     0.562667     5.119717
 H     2.353533     0.117788     5.822665
 C    -0.599927     1.212312     4.539374
 H    -1.662148     1.276753     4.786404
 C     0.289682     0.625788     5.438437
 H    -0.071573     0.227090     6.389186
 H     4.054726     0.493724     1.296416
 H     2.913707    -0.783260     1.738691
 C     3.845191    -1.079783    -0.192906
 H     3.019244    -1.622638    -0.682219
 H     4.311878    -0.467381    -0.984378
 C     4.864189    -2.080218     0.333403
 H     4.390166    -2.699008     1.117129
 H     5.688700    -1.541174     0.835423
 C     5.434624    -2.986526    -0.748325
 H     4.603411    -3.513840    -1.248738
 H     5.904968    -2.364467    -1.530551
 C     6.441362    -3.996705    -0.222560
 H     6.834292    -4.636602    -1.027193
 H     5.986759    -4.655981     0.534443
 H     7.300079    -3.495587     0.252977
 H     2.632813     1.122163    -1.904024
 H     1.677628     2.488223    -1.365865
 C     3.785983     2.609254    -0.832021
 H     3.641186     3.355524    -0.032355
 H     4.583467     1.934019    -0.475321
 C     4.270413     3.322394    -2.088077
 H     3.476013     3.998657    -2.452824
 H     4.420175     2.579274    -2.892257
 C     5.554912     4.113171    -1.883273
 H     5.400116     4.852374    -1.077177
 H     6.343025     3.432423    -1.514981
 C     6.035974     4.819977    -3.140148
 H     6.965224     5.381723    -2.961018
 H     5.282118     5.533305    -3.510447
 H     6.232838     4.101119    -3.951738
 H    -1.988639    -1.496402    -3.003989
 H    -3.564400    -1.695893    -2.207235
 C    -2.087221    -3.151809    -1.644308
 C    -2.859833    -3.872019    -0.723914
 H    -3.781964    -3.432442    -0.334427
 C    -0.924236    -3.747545    -2.147607
 H    -0.307722    -3.199730    -2.863436
 C    -2.469079    -5.139638    -0.298359
 H    -3.083130    -5.682257     0.424553
 C    -0.534088    -5.016292    -1.726297
 H     0.380981    -5.459899    -2.126107
 C    -1.300358    -5.714993    -0.794666
 H    -0.990813    -6.707759    -0.459809
 H    -4.232213    -0.815756     0.010224
 H    -2.971063    -1.483186     1.055464
 C    -3.325437     0.634876     1.359923
 H    -2.296886     0.962283     1.584195
 H    -3.798368     1.464062     0.804804
 C    -4.081135     0.404007     2.660189
 H    -3.523110    -0.326627     3.273717
 H    -5.059031    -0.065793     2.448114
 C    -4.301281     1.680342     3.460666
 H    -3.335284     2.200504     3.586697
 H    -4.929946     2.371274     2.871574
 C    -4.935085     1.441897     4.821270
 H    -5.095468     2.383584     5.367754
 H    -4.299746     0.796250     5.449498
 H    -5.912253     0.941808     4.724950
 H    -2.334170     1.914408    -1.106106
 H    -1.783433     1.185571    -2.598958
 C    -3.942798     1.110321    -2.325248
 H    -4.097582     0.302522    -3.060413
 H    -4.662091     0.919015    -1.509185
 C    -4.283612     2.443278    -2.979441
 H    -3.562952     2.644652    -3.792777
 H    -4.137865     3.256436    -2.245063
 C    -5.700994     2.507795    -3.530864
 H    -5.841148     1.693112    -4.263396
 H    -6.415797     2.299882    -2.714731
 C    -6.037409     3.841387    -4.178219
 H    -7.067008     3.857238    -4.566550
 H    -5.360901     4.058202    -5.020574
 H    -5.940489     4.670374    -3.458681
