  92
scf done:    -3878.212163
 C     0.534497    -3.459750     1.118946
 H     1.559099    -3.624017     0.773332
 H     0.390440    -3.699692     2.177434
 C    -0.550173    -3.576159     0.226015
 H    -0.371226    -3.823283    -0.824594
 H    -1.521348    -3.919980     0.596071
 H     0.609317    -1.666215    -0.630571
Co    -0.166519    -1.625496     0.623527
 C    -0.777951     0.112727    -2.231656
 O    -2.883516    -0.861167    -1.204337
 O    -1.730295     0.975910     0.221509
 C     1.574969     0.323280     2.745277
 O     3.041299    -0.957475     1.019836
 O     1.536212     0.868515    -0.001436
 P     1.470362    -0.410362     1.068226
 P    -1.384445    -0.431664    -0.603525
 C    -1.069400    -1.412694     2.116878
 O    -1.620034    -1.246452     3.109594
 H    -1.560518     0.751201    -2.668510
 H     0.112349     0.728808    -2.031199
 C    -0.454914    -1.041247    -3.173181
 H    -1.345221    -1.683689    -3.273059
 H     0.329020    -1.670941    -2.720213
 C    -0.005386    -0.560737    -4.543988
 H    -0.787501     0.040852    -5.033824
 H     0.897423     0.065538    -4.470260
 H     0.228650    -1.407454    -5.206781
 C    -4.001171    -1.203112    -0.494049
 C    -3.964298    -2.130928     0.543937
 H    -3.014407    -2.603291     0.786926
 C    -5.203392    -0.589833    -0.886145
 C    -5.223326     0.370209    -2.034538
 H    -4.606930     1.257593    -1.824579
 H    -4.811751    -0.095080    -2.943504
 H    -6.247287     0.706246    -2.246369
 C    -5.129849    -2.432552     1.245765
 H    -5.093271    -3.151663     2.067129
 C    -6.356433    -0.915397    -0.167809
 H    -7.300123    -0.442885    -0.453914
 C    -6.328643    -1.817566     0.895853
 H    -7.246249    -2.045486     1.442629
 C    -2.606501     1.979252    -0.094165
 C    -2.367957     2.838351    -1.167246
 H    -1.462827     2.712963    -1.761160
 C    -3.710635     2.166254     0.756247
 C    -3.901745     1.300193     1.961806
 H    -4.153617     0.265701     1.684307
 H    -2.980692     1.247659     2.560630
 H    -4.712180     1.686817     2.594015
 C    -3.270612     3.860451    -1.455044
 H    -3.083129     4.525352    -2.301230
 C    -4.597502     3.200597     0.443901
 H    -5.466384     3.354139     1.089575
 C    -4.397447     4.033754    -0.655825
 H    -5.112265     4.829867    -0.875259
 H     0.869163     1.173041     2.712694
 H     1.087421    -0.421713     3.395471
 C     2.923912     0.708741     3.336863
 H     3.484997     1.344319     2.637546
 H     3.524905    -0.205586     3.453651
 C     2.775037     1.416922     4.673946
 H     2.219328     2.362927     4.567170
 H     2.227281     0.796135     5.401066
 H     3.756362     1.655680     5.111155
 C     3.780036    -1.411258    -0.040143
 C     3.287534    -2.330063    -0.965716
 H     2.259864    -2.677606    -0.873492
 C     5.098796    -0.930480    -0.127744
 C     5.617542     0.056974     0.870281
 H     6.672763     0.290880     0.675475
 H     5.044984     0.996999     0.829116
 H     5.528106    -0.328094     1.896933
 C     4.099805    -2.772200    -2.007902
 H     3.702426    -3.487865    -2.731272
 C     5.892588    -1.398332    -1.178325
 H     6.920052    -1.032620    -1.257385
 C     5.406833    -2.306877    -2.118238
 H     6.050959    -2.652024    -2.929928
 C     2.496411     1.835323    -0.150302
 C     2.612750     2.858224     0.794092
 H     1.928290     2.874847     1.642603
 C     3.291599     1.826920    -1.307884
 C     3.110396     0.811155    -2.394890
 H     4.031630     0.231975    -2.557840
 H     2.311601     0.101178    -2.156282
 H     2.859616     1.310685    -3.344178
 C     3.576814     3.848729     0.640129
 H     3.665721     4.639997     1.387858
 C     4.254996     2.835690    -1.435485
 H     4.892267     2.835251    -2.324291
 C     4.414787     3.828549    -0.474080
 H     5.178994     4.598014    -0.603643
