  88
scf done:    -3426.081009
 C     0.035258    -1.512142    -3.305172
 H    -0.295388    -0.912347    -4.159407
 H     1.063774    -1.870182    -3.393033
 C    -0.904738    -2.268132    -2.573892
 H    -1.966588    -2.241503    -2.836228
 H    -0.594487    -3.203893    -2.098735
 H     0.712565    -1.462009    -0.916500
Co    -0.356070    -0.630837    -1.519119
 C     1.304498     2.392714    -1.793867
 O     1.438769     0.906942     0.482875
 O     2.760423     0.296711    -1.626120
 C    -1.757599     0.246530     1.492696
 O    -2.874005    -1.688047    -0.073016
 O    -0.799975    -2.124107     1.381707
 P    -1.390916    -1.061023     0.271069
 P     1.226651     0.679296    -1.146504
 C    -1.569442     0.433529    -2.191804
 O    -2.378644     1.102382    -2.660903
 H     2.283015     2.809573    -1.499993
 H     1.334386     2.290584    -2.891793
 C     0.162336     3.302404    -1.362925
 H     0.036611     3.241330    -0.269602
 H    -0.783009     2.940933    -1.794657
 C     0.382019     4.751578    -1.768336
 H     1.293734     5.163317    -1.305261
 H     0.495939     4.848160    -2.859708
 H    -0.463696     5.386358    -1.463250
 C     2.557812     1.570073     1.051677
 H     2.894965     0.936628     1.889917
 H     3.385416     1.612217     0.325102
 C     2.220704     2.956369     1.566562
 H     3.125984     3.358592     2.055152
 H     2.013365     3.630114     0.718348
 C     1.049707     2.983041     2.536394
 H     1.283483     2.345074     3.407259
 H     0.181949     2.512244     2.047844
 C     0.682164     4.383132     2.997353
 H     1.524208     4.874518     3.510911
 H     0.401514     5.020462     2.142915
 H    -0.169923     4.370284     3.694003
 C     3.221181    -0.987839    -1.998974
 H     2.549008    -1.766124    -1.597026
 H     3.190214    -1.060226    -3.099085
 C     4.638487    -1.193779    -1.506399
 H     5.047743    -2.084594    -2.014763
 H     5.251317    -0.339091    -1.842497
 C     4.758326    -1.364427     0.000559
 H     4.192376    -2.260454     0.305797
 H     4.261719    -0.517134     0.498172
 C     6.193389    -1.473850     0.486759
 H     6.710678    -2.330254     0.024554
 H     6.770820    -0.569164     0.236635
 H     6.240192    -1.607403     1.578415
 H    -2.322795    -0.213056     2.321021
 H    -0.775356     0.536591     1.898502
 C    -2.484308     1.449741     0.909947
 H    -3.345033     1.113032     0.308482
 H    -1.812246     1.959505     0.202827
 C    -2.956201     2.431040     1.970873
 H    -3.674377     1.958756     2.660811
 H    -2.115057     2.802203     2.577502
 H    -3.452694     3.302987     1.518547
 C    -3.767276    -2.200517     0.902165
 H    -4.148226    -3.154310     0.499375
 H    -3.225602    -2.436266     1.833940
 C    -4.923570    -1.253666     1.164318
 H    -5.614988    -1.748711     1.869371
 H    -4.554337    -0.354604     1.686551
 C    -5.668937    -0.836509    -0.095501
 H    -6.102881    -1.732460    -0.573755
 H    -4.940344    -0.436778    -0.819854
 C    -6.756885     0.190552     0.169493
 H    -7.510387    -0.190900     0.877776
 H    -6.334916     1.111518     0.604397
 H    -7.282150     0.472743    -0.755383
 C     0.146727    -3.133830     1.083595
 H    -0.196938    -4.051371     1.590712
 H     0.167545    -3.332149    -0.000275
 C     1.523104    -2.729159     1.568425
 H     2.239123    -3.520686     1.283156
 H     1.819936    -1.818760     1.021496
 C     1.600114    -2.465788     3.064569
 H     1.325226    -3.383884     3.614191
 H     0.834982    -1.716351     3.325540
 C     2.971150    -1.987366     3.513398
 H     3.754645    -2.725151     3.274763
 H     3.247057    -1.047625     3.008491
 H     3.005132    -1.804994     4.598235
