  92
scf done:    -3878.068088
 C    -0.903828    -2.957837     0.954139
 H    -1.543499    -2.655079     1.786303
 H    -1.429476    -3.494010     0.156691
 C     0.471117    -3.184715     1.166410
 H     0.897968    -3.083402     2.168721
 H     0.983297    -3.929457     0.547174
 H     0.001742    -0.869764     1.624951
Co     0.159833    -1.394539     0.254443
 C     2.389555     0.484455     2.070235
 C     3.576972    -1.126500     0.055657
 C     2.144979     1.119940    -0.803336
 C    -1.205598     0.933862    -1.743694
 C    -2.945201    -1.179775    -0.839441
 C    -2.244073     1.033919     0.952917
 P    -1.538443    -0.142297    -0.278015
 P     1.991109    -0.251234     0.424354
 C     0.409342    -1.940563    -1.391522
 O     0.574565    -2.257913    -2.486872
 H     3.271782     1.130464     1.960502
 H     1.542841     1.128763     2.340160
 C     2.610229    -0.583902     3.130397
 H     3.456587    -1.228769     2.839265
 H     1.724397    -1.239204     3.163789
 C     2.866548     0.013263     4.505283
 H     3.759052     0.659772     4.502086
 H     2.015134     0.630059     4.836342
 H     3.024336    -0.770112     5.262469
 C     3.554421    -2.495467    -0.203121
 H     2.588142    -2.998201    -0.161914
 C     4.821967    -0.457160     0.009489
 O     4.814347     0.865956     0.265885
 C     5.960762     1.628481     0.019871
 H     6.790008     1.360738     0.698199
 H     5.681199     2.674970     0.196098
 H     6.301717     1.520580    -1.024187
 C     4.715638    -3.207522    -0.506328
 H     4.664654    -4.279556    -0.706431
 C     5.987912    -1.162614    -0.302655
 H     6.948882    -0.649369    -0.345440
 C     5.929334    -2.533563    -0.555901
 H     6.850470    -3.070873    -0.795343
 C     2.616588     0.802471    -2.079809
 H     2.948243    -0.219756    -2.278886
 C     1.678799     2.429599    -0.577996
 O     1.131803     2.685600     0.630550
 C     0.524439     3.926235     0.859594
 H     1.253109     4.754430     0.812485
 H     0.090809     3.881208     1.865586
 H    -0.288909     4.117690     0.138149
 C     2.672049     1.748414    -3.101693
 H     3.044480     1.465363    -4.088298
 C     1.753120     3.391339    -1.592542
 H     1.406402     4.408759    -1.412146
 C     2.250158     3.049200    -2.849212
 H     2.292692     3.808405    -3.633827
 H    -0.330539     1.522610    -1.435085
 H    -0.809806     0.253942    -2.516941
 C    -2.266803     1.852218    -2.326468
 H    -2.574063     2.584644    -1.562764
 H    -3.173512     1.278088    -2.572321
 C    -1.752137     2.581780    -3.559160
 H    -0.848613     3.167654    -3.326222
 H    -1.478643     1.872110    -4.356687
 H    -2.508505     3.269299    -3.968837
 C    -3.060676    -1.546151    -2.179905
 H    -2.358623    -1.140794    -2.910923
 C    -3.847107    -1.744827     0.085017
 O    -3.686997    -1.372045     1.370211
 C    -4.519580    -1.901784     2.358464
 H    -5.579673    -1.645131     2.183375
 H    -4.197942    -1.454206     3.307410
 H    -4.424676    -2.999817     2.427600
 C    -4.047260    -2.433862    -2.614288
 H    -4.110833    -2.703250    -3.670509
 C    -4.840184    -2.628782    -0.342232
 H    -5.538514    -3.062268     0.374156
 C    -4.937462    -2.969798    -1.692403
 H    -5.714886    -3.666749    -2.014553
 C    -1.469983     1.366025     2.061590
 H    -0.497157     0.881672     2.155937
 C    -3.533524     1.601478     0.849482
 O    -4.279160     1.226156    -0.203873
 C    -5.597099     1.670845    -0.328455
 H    -6.210080     1.381523     0.543172
 H    -6.003157     1.185810    -1.225229
 H    -5.652891     2.766664    -0.455405
 C    -1.919007     2.255023     3.039390
 H    -1.286999     2.487542     3.899522
 C    -3.991899     2.494023     1.824560
 H    -4.986583     2.933043     1.744464
 C    -3.181810     2.820767     2.912256
 H    -3.556469     3.516380     3.667546
