  76
scf done:    -5258.168333
 C    -0.559549    -3.224066    -1.405834
 H    -1.183436    -3.959851    -0.885791
 H    -0.925706    -2.965251    -2.404030
 C     0.825258    -3.196653    -1.124674
 H     1.234820    -3.901216    -0.393176
 H     1.541047    -2.915617    -1.903275
 H     0.204564    -0.989995    -1.625311
Co    -0.072837    -1.593233    -0.312383
 C    -1.766287     0.920631    -1.885326
 C    -3.450879    -0.803492    -0.356491
 C    -1.751823     1.001620     0.974694
 C     1.600347     0.393688     1.911949
 C     3.265268    -1.068594     0.139687
 C     1.750288     1.138471    -0.890747
 P     1.589620    -0.322029     0.208538
 P    -1.716967    -0.196178    -0.421549
 C    -0.385007    -2.294931     1.264691
 O    -0.566438    -2.751345     2.306052
 H    -2.586566     1.646925    -1.757130
 H    -0.818261     1.483191    -1.876625
 C    -1.905687     0.181660    -3.207368
 H    -2.847720    -0.392985    -3.213482
 H    -1.093386    -0.560261    -3.280790
 C    -1.861607     1.126201    -4.398362
 H    -2.691062     1.850787    -4.367977
 H    -0.922662     1.703070    -4.412999
 H    -1.934551     0.577249    -5.349311
 C    -3.712426    -2.172632    -0.427690
 H    -2.871656    -2.862910    -0.506475
 C    -4.527056     0.087241    -0.242156
 H    -4.343161     1.162136    -0.160061
 C    -5.019803    -2.654275    -0.396303
 H    -5.225072    -3.724524    -0.450926
 C    -5.836367    -0.377193    -0.210800
 H    -6.676648     0.312870    -0.118791
 C    -6.074366    -1.751158    -0.290672
Cl    -7.702957    -2.335415    -0.249743
 C    -1.448591     2.359036     0.829599
 H    -1.292435     2.789229    -0.160058
 C    -1.964474     0.501533     2.268725
 H    -2.215162    -0.552574     2.410337
 C    -1.305615     3.187181     1.943107
 H    -1.050356     4.241916     1.826102
 C    -1.834061     1.315268     3.386512
 H    -1.984142     0.916142     4.390798
 C    -1.479331     2.655299     3.217299
Cl    -1.240920     3.661551     4.605687
 H     0.729258     1.067018     1.962990
 H     1.340790    -0.451620     2.571144
 C     2.861919     1.082802     2.412196
 H     3.195858     1.844575     1.687964
 H     3.681988     0.348459     2.462460
 C     2.650725     1.723831     3.776243
 H     1.848308     2.479024     3.749634
 H     2.359865     0.971215     4.526377
 H     3.566144     2.217136     4.136325
 C     3.441589    -2.318315     0.747067
 H     2.580450    -2.832863     1.179824
 C     4.377288    -0.431792    -0.420634
 H     4.268506     0.547638    -0.891469
 C     4.694738    -2.917739     0.804988
 H     4.830503    -3.889785     1.281685
 C     5.635859    -1.027699    -0.384562
 H     6.502093    -0.532411    -0.826239
 C     5.787947    -2.268117     0.231274
Cl     7.349450    -3.012994     0.283307
 C     1.565945     2.454118    -0.457464
 H     1.420552     2.672647     0.600711
 C     1.932278     0.909916    -2.264027
 H     2.064547    -0.112477    -2.626863
 C     1.529486     3.513314    -1.365499
 H     1.367562     4.536759    -1.023054
 C     1.916161     1.954406    -3.178395
 H     2.053868     1.768410    -4.244703
 C     1.696028     3.256451    -2.723042
Cl     1.617391     4.555859    -3.862464
