  76
scf done:    -3420.284468
 C     0.708686    -3.235307     0.802883
 H     1.306997    -3.856385     0.126652
 H     1.142681    -3.134058     1.802384
 C    -0.693717    -3.203060     0.626902
 H    -1.144422    -3.789173    -0.180875
 H    -1.355983    -3.071831     1.488122
 H    -0.077445    -1.086459     1.440582
Co     0.113397    -1.464279     0.029965
 C     1.900930     0.771835     1.876997
 C     3.472246    -0.594680    -0.071246
 C     1.649928     1.371085    -0.916299
 C    -1.775592     0.778353    -1.724248
 C    -3.254100    -0.979884    -0.064057
 C    -1.709465     1.112256     1.156681
 P    -1.604173    -0.174902    -0.149419
 P     1.739691    -0.057836     0.240376
 C     0.313291    -1.884055    -1.660098
 O     0.419176    -2.153210    -2.775126
 H     2.683794     1.546389     1.815895
 H     0.939871     1.279530     2.062352
 C     2.193985    -0.200972     3.009175
 H     3.156648    -0.706351     2.821157
 H     1.425264    -0.991137     2.998746
 C     2.218756     0.483232     4.366667
 H     2.996158     1.263014     4.410947
 H     1.252507     0.967768     4.581307
 H     2.421792    -0.235322     5.175304
 C     3.755435    -1.946801    -0.270900
 C     4.520310     0.335804    -0.102465
 C     6.104746    -1.440511    -0.510750
 C     5.828779    -0.085099    -0.318329
 C     5.067368    -2.369095    -0.489526
 H     2.930693    -2.660288    -0.253703
 H     5.276836    -3.430054    -0.645999
 H     7.132441    -1.769705    -0.683157
 H     6.639013     0.647814    -0.343622
 H     4.308499     1.401039     0.026504
 C     1.349402     2.674134    -0.506385
 C     1.799843     1.114996    -2.288126
 C     1.312376     3.423584    -2.806229
 C     1.635596     2.130288    -3.223587
 C     1.176177     3.692055    -1.446884
 H     1.229709     2.905771     0.552549
 H     0.933760     4.702964    -1.109060
 H     1.174262     4.220032    -3.541257
 H     1.752952     1.910502    -4.287383
 H     2.038423     0.103843    -2.627528
 H    -0.936555     1.494074    -1.740141
 H    -1.540435     0.052700    -2.520566
 C    -3.104207     1.463890    -2.011835
 H    -3.416983     2.071465    -1.146325
 H    -3.887950     0.698326    -2.128790
 C    -3.036508     2.336481    -3.256151
 H    -2.284378     3.134351    -3.143668
 H    -2.752485     1.744943    -4.141231
 H    -4.005414     2.813343    -3.469131
 C    -3.457317    -2.108666    -0.868918
 C    -4.319983    -0.491947     0.698892
 C    -5.757191    -2.243413    -0.145528
 C    -5.562082    -1.125586     0.662582
 C    -4.701616    -2.730529    -0.916939
 H    -2.626898    -2.502720    -1.459848
 H    -4.845421    -3.607575    -1.552636
 H    -6.731339    -2.737503    -0.173796
 H    -6.384598    -0.736756     1.268056
 H    -4.183561     0.392712     1.324504
 C    -1.781484     0.690370     2.493802
 C    -1.618952     2.482293     0.893328
 C    -1.660468     2.977686     3.260309
 C    -1.587103     3.407889     1.938675
 C    -1.766475     1.612275     3.534917
 H    -1.831332    -0.378600     2.716411
 H    -1.825271     1.263183     4.568673
 H    -1.635193     3.702457     4.077446
 H    -1.504134     4.473788     1.712151
 H    -1.549951     2.842770    -0.133268
