 102
scf done:    -3960.622526
 C    -0.955381    -1.800302    -2.979091
 H    -1.399587    -2.794862    -2.863434
 H    -1.610363    -1.083112    -3.485399
 C     0.442406    -1.677840    -3.111949
 H     1.069948    -2.574191    -3.092890
 H     0.863172    -0.854127    -3.697743
 H    -0.238824     0.289092    -1.878769
Co    -0.146599    -1.062778    -1.275923
 C    -2.850102     0.921820    -1.542679
 C    -3.202397    -1.306894     0.259823
 C    -1.529533     0.860845     1.057838
 C     1.825557     0.214283     1.153701
 C     3.246652    -1.330243    -0.826998
 C     2.268214     1.254632    -1.537699
 P     1.756265    -0.267679    -0.654294
 P    -1.888335    -0.200521    -0.396899
 C    -0.058708    -2.468893    -0.236617
 O     0.005145    -3.303279     0.557492
 H    -2.207058     1.803411    -1.683799
 H    -2.835076     0.389206    -2.502179
 C    -4.239242     1.300314    -1.131058
 C    -4.447063     2.388538    -0.274242
 H    -3.590290     2.981138     0.050839
 C    -5.353363     0.546316    -1.559599
 C    -5.202310    -0.609382    -2.504503
 H    -4.568173    -1.400593    -2.077391
 H    -4.739083    -0.298247    -3.454934
 H    -6.179085    -1.053865    -2.738562
 C    -5.717178     2.721361     0.187949
 H    -5.847296     3.572297     0.860684
 C    -6.623474     0.895754    -1.088597
 H    -7.484670     0.308070    -1.418228
 C    -6.813667     1.964634    -0.216320
 H    -7.818068     2.211238     0.136566
 C    -3.255316    -2.634823    -0.178797
 H    -2.486738    -3.005737    -0.858347
 C    -4.198041    -0.834499     1.121508
 H    -4.165981     0.201095     1.468761
 C    -4.290013    -3.465921     0.240867
 H    -4.324999    -4.503903    -0.098420
 C    -5.251154    -1.653488     1.541019
 C    -6.330770    -1.096401     2.421920
 H    -5.906871    -0.573046     3.292672
 H    -6.935802    -0.360471     1.867676
 H    -7.003350    -1.884389     2.788879
 C    -5.281083    -2.977281     1.089974
 H    -6.093691    -3.634946     1.411397
 C    -1.216047     2.218136     0.930522
 H    -1.315870     2.722027    -0.032710
 C    -1.358118     0.247241     2.305622
 H    -1.585438    -0.817867     2.411436
 C    -0.748883     2.936987     2.030424
 H    -0.511990     3.998810     1.923333
 C    -0.874746     0.948639     3.412691
 C    -0.628069     0.246606     4.715587
 H    -1.249113    -0.655052     4.812159
 H     0.426782    -0.068217     4.788932
 H    -0.831777     0.902045     5.574904
 C    -0.574004     2.308540     3.260004
 H    -0.194326     2.876817     4.113178
 H     1.132859     1.061857     1.248313
 H     1.333999    -0.626719     1.660294
 C     3.151510     0.532812     1.765461
 C     3.678829     1.825793     1.656974
 H     3.090736     2.596055     1.154143
 C     3.902765    -0.461327     2.429449
 C     3.376020    -1.855943     2.600681
 H     3.185922    -2.340317     1.630727
 H     2.423218    -1.865744     3.155152
 H     4.090954    -2.480434     3.153280
 C     4.938062     2.141871     2.158716
 H     5.328995     3.156635     2.052990
 C     5.163056    -0.124448     2.935386
 H     5.745462    -0.894826     3.448591
 C     5.688704     1.158303     2.798173
 H     6.678426     1.389913     3.199384
 C     3.107521    -2.700011    -1.077888
 H     2.116020    -3.119900    -1.246231
 C     4.529532    -0.803623    -0.633245
 H     4.654421     0.266224    -0.451260
 C     4.230718    -3.521856    -1.107131
 H     4.116040    -4.590831    -1.301767
 C     5.666701    -1.617729    -0.652661
 C     7.018973    -1.021089    -0.394091
 H     7.225433    -0.187203    -1.082971
 H     7.069466    -0.612237     0.627934
 H     7.820034    -1.764922    -0.507459
 C     5.498472    -2.985812    -0.889600
 H     6.375564    -3.638844    -0.908926
 C     3.064250     1.186980    -2.683942
 H     3.476994     0.229558    -3.008780
 C     1.740948     2.493408    -1.153667
 H     1.093034     2.555394    -0.276743
 C     3.334267     2.345296    -3.412935
 H     3.958290     2.285978    -4.308146
 C     2.006897     3.661562    -1.869259
 C     1.440721     4.981210    -1.429512
 H     0.830298     5.439357    -2.223711
 H     0.806724     4.869032    -0.538247
 H     2.240660     5.697929    -1.183843
 C     2.816313     3.571368    -3.009796
 H     3.037582     4.473006    -3.587941
