 114
scf done:    -4117.759006
 C     0.115416     2.232605    -3.167795
 H    -0.319374     1.853299    -4.099590
 H    -0.452698     3.058727    -2.727524
 C     1.520642     2.178201    -2.986631
 H     2.149169     1.766626    -3.785508
 H     2.016355     2.959442    -2.399578
 H     0.520422     1.852266    -0.844736
Co     0.611373     0.790570    -1.863966
 C    -1.610576     0.977603     0.692968
 C    -2.707021     0.721784    -2.110493
 C    -1.539758    -1.613290    -0.730407
 C     2.081069    -1.479812     0.182588
 C     3.856933    -0.058192    -1.679803
 C     2.873052     1.269786     0.705106
 P     2.282005     0.176759    -0.674528
 P    -1.287940     0.234686    -0.986948
 C     0.684769    -0.566565    -2.966513
 O     0.727448    -1.508164    -3.631999
 H    -1.335826     0.195622     1.412617
 H    -0.845787     1.756904     0.777006
 C    -2.960003     1.526129     1.030712
 C    -3.853069     0.775348     1.804732
 H    -3.553908    -0.217658     2.144074
 C    -3.332073     2.821007     0.610706
 C    -2.372330     3.711885    -0.125742
 H    -1.744597     3.170352    -0.847283
 H    -1.673238     4.185676     0.582538
 H    -2.901743     4.513509    -0.659592
 C    -5.109371     1.269022     2.142293
 H    -5.786099     0.663138     2.749773
 C    -4.606634     3.295545     0.944356
 H    -4.901798     4.294080     0.609783
 C    -5.495151     2.532441     1.698913
 H    -6.482915     2.929177     1.945770
 H    -2.905910     1.780239    -1.893749
 H    -2.237182     0.696725    -3.103441
 C    -3.979192    -0.066751    -2.132583
 C    -4.095371    -1.181862    -2.975985
 H    -3.258565    -1.459497    -3.623510
 C    -5.081063     0.296085    -1.353206
 H    -5.012233     1.177671    -0.713379
 C    -5.272884    -1.923220    -3.008858
 H    -5.352986    -2.788719    -3.671037
 C    -6.272720    -0.436808    -1.373862
 C    -7.422214    -0.029739    -0.499602
 H    -7.205226    -0.257021     0.556450
 H    -7.603210     1.053967    -0.557431
 H    -8.348488    -0.552759    -0.776615
 C    -6.354175    -1.557368    -2.207961
 H    -7.279267    -2.139601    -2.241680
 H    -1.984928    -1.988640    -1.663312
 H    -0.519839    -2.016233    -0.686496
 C    -2.311669    -2.086316     0.462970
 C    -1.663685    -2.254931     1.694006
 H    -0.588326    -2.072617     1.769433
 C    -3.681116    -2.368344     0.390598
 H    -4.197403    -2.258485    -0.563965
 C    -2.374646    -2.664101     2.820794
 H    -1.855238    -2.790119     3.774047
 C    -4.409280    -2.782223     1.509223
 C    -5.881075    -3.059404     1.406885
 H    -6.229339    -2.978540     0.368394
 H    -6.126736    -4.066597     1.778302
 H    -6.459943    -2.342649     2.011843
 C    -3.740176    -2.919815     2.732448
 H    -4.293568    -3.240177     3.619659
 H     1.386939    -1.270008     1.010400
 H     1.522646    -2.096619    -0.533096
 C     3.307831    -2.193852     0.655060
 C     3.906257    -1.855702     1.876126
 H     3.444454    -1.091906     2.504918
 C     3.892432    -3.213006    -0.131205
 C     3.244291    -3.704906    -1.395909
 H     3.018430    -2.901487    -2.113211
 H     2.285324    -4.204065    -1.178302
 H     3.887077    -4.434937    -1.905977
 C     5.075925    -2.471028     2.312289
 H     5.517964    -2.184843     3.269425
 C     5.075907    -3.812111     0.315788
 H     5.532127    -4.594842    -0.296283
 C     5.673699    -3.447512     1.519863
 H     6.596851    -3.934859     1.841817
 H     4.032933    -1.139460    -1.750864
 H     3.593369     0.302579    -2.682235
 C     5.091634     0.630918    -1.187557
 C     5.345589     1.963765    -1.536134
 H     4.654024     2.487508    -2.202362
 C     5.994799    -0.026520    -0.346702
 H     5.808405    -1.069490    -0.078463
 C     6.467010     2.618394    -1.034389
 H     6.656194     3.659588    -1.307443
 C     7.127976     0.615922     0.163208
 C     8.091903    -0.129736     1.040105
 H     7.570218    -0.868041     1.666296
 H     8.828542    -0.682201     0.432930
 H     8.652493     0.551569     1.696369
 C     7.349098     1.952852    -0.185259
 H     8.224990     2.475651     0.208846
 H     3.684880     0.746818     1.233173
 H     3.341491     2.125954     0.199415
 C     1.811436     1.757843     1.642650
 C     1.336578     3.070736     1.535594
 H     1.750393     3.728015     0.767352
 C     1.264132     0.940993     2.640803
 H     1.630143    -0.081266     2.763697
 C     0.354560     3.541844     2.404074
 H     0.010870     4.576063     2.323098
 C     0.250843     1.384168     3.496696
 C    -0.380413     0.451665     4.488442
 H     0.274046    -0.401923     4.717382
 H    -0.621025     0.964210     5.431315
 H    -1.325775     0.046371     4.088513
 C    -0.195262     2.704327     3.370756
 H    -0.982333     3.075229     4.032284
