  88
scf done:    -3577.428182
 C    -0.444998     1.127120    -3.263942
 H    -1.099855     0.592532    -3.961393
 H    -0.744528     2.165505    -3.091250
 C     0.918461     0.757451    -3.198945
 H     1.283428    -0.053830    -3.837524
 H     1.683871     1.505467    -2.970424
 H     0.317358     1.474208    -1.043653
Co    -0.040494     0.137834    -1.548145
 C    -1.659543     2.002020     0.805605
 C    -3.418887     0.430128    -0.795392
 C    -1.809868    -0.843279     1.129308
 C     1.495106    -2.037709     0.592758
 C     3.259733    -0.440226    -0.947598
 C     1.780828     0.788240     1.188196
 P     1.575070    -0.377459    -0.216195
 P    -1.685227     0.445388    -0.178931
 C    -0.436968    -1.470161    -2.119621
 O    -0.669152    -2.537635    -2.486947
 H    -2.484874     1.979490     1.536914
 H    -0.711388     1.997792     1.368336
 C    -1.739256     3.252765    -0.056059
 H    -2.685730     3.250810    -0.623318
 H    -0.932305     3.211742    -0.806246
 C    -1.624171     4.527521     0.764547
 H    -2.437516     4.605543     1.503959
 H    -0.671966     4.554934     1.318340
 H    -1.668027     5.423002     0.125924
 C    -3.669294     0.421354    -2.166381
 H    -2.824776     0.405605    -2.855931
 C    -4.496809     0.436151     0.100721
 H    -4.303817     0.415700     1.177981
 C    -4.985504     0.428756    -2.631569
 H    -5.181546     0.420750    -3.706646
 C    -5.817681     0.444210    -0.348530
 C    -6.968375     0.447158     0.616090
 H    -6.619611     0.429720     1.658076
 H    -7.596579     1.342712     0.484817
 H    -7.619093    -0.428484     0.463347
 C    -6.045975     0.442546    -1.733205
 H    -7.074238     0.445723    -2.106715
 C    -1.533284    -0.604636     2.478334
 H    -1.307744     0.402055     2.831150
 C    -2.092894    -2.153410     0.718817
 H    -2.311709    -2.348582    -0.334651
 C    -1.512647    -1.667735     3.383262
 H    -1.282697    -1.477461     4.434919
 C    -2.078890    -3.225721     1.611291
 C    -2.389065    -4.616871     1.141182
 H    -3.462458    -4.841745     1.257009
 H    -2.139727    -4.742941     0.077883
 H    -1.832795    -5.370041     1.718197
 C    -1.772430    -2.965504     2.955071
 H    -1.740038    -3.792179     3.670232
 H     0.627745    -2.003637     1.272981
 H     1.194455    -2.729290    -0.211815
 C     2.739757    -2.559777     1.296656
 H     3.129128    -1.802539     1.997305
 H     3.539816    -2.709037     0.553874
 C     2.467493    -3.858780     2.040374
 H     1.695973    -3.720244     2.815334
 H     2.102108    -4.639795     1.354249
 H     3.374780    -4.242659     2.531451
 C     3.416722    -1.166929    -2.134250
 H     2.542690    -1.610824    -2.616439
 C     4.383831     0.132056    -0.347115
 H     4.272239     0.688682     0.586921
 C     4.680902    -1.320749    -2.693828
 H     4.801042    -1.896059    -3.615134
 C     5.659448     0.002927    -0.910417
 C     6.846097     0.663218    -0.269696
 H     6.973252     1.692615    -0.644960
 H     6.730302     0.726968     0.822093
 H     7.777231     0.119548    -0.485708
 C     5.793142    -0.736312    -2.089709
 H     6.782091    -0.855859    -2.541097
 C     1.592839     0.423502     2.523690
 H     1.379717    -0.610998     2.792765
 C     2.032821     2.134528     0.887041
 H     2.155180     2.428831    -0.159456
 C     1.640531     1.393666     3.526144
 H     1.474736     1.103136     4.566648
 C     2.101308     3.114049     1.878988
 C     2.400207     4.542519     1.527124
 H     3.485578     4.736182     1.555843
 H     2.050926     4.787481     0.513799
 H     1.925609     5.240185     2.232455
 C     1.889766     2.724663     3.209360
 H     1.917963     3.477414     4.002092
