  84
scf done:    -3573.590838
 C    -0.842760    -3.537519    -1.073581
 H    -1.505282    -4.086510    -0.398239
 H    -1.324942    -3.244037    -2.011681
 C     0.547340    -3.794861    -1.056310
 H     0.946249    -4.541947    -0.362113
 H     1.123554    -3.707720    -1.981453
 H     0.251856    -1.454494    -1.571719
Co     0.135950    -2.007763    -0.200400
 C    -2.072489     0.072463    -1.574207
 O    -2.985171    -1.211676     0.519710
 O    -1.155331     0.506666     1.064870
 C     2.183179    -0.012148     1.585982
 O     3.194298    -0.893889    -0.683973
 O     1.287236     0.824802    -0.820483
 P     1.687734    -0.597291    -0.087283
 P    -1.506749    -0.693514    -0.001280
 C     0.264689    -2.615127     1.439751
 O     0.386432    -2.992994     2.519035
 H    -2.260299    -0.814213    -2.203342
 H    -1.155487     0.536720    -1.966805
 C    -3.234038     1.020641    -1.623061
 C    -3.052367     2.326708    -2.094490
 H    -2.059167     2.641905    -2.426056
 C    -4.525557     0.626614    -1.243128
 H    -4.682702    -0.390685    -0.883981
 C    -4.114601     3.226945    -2.152107
 H    -3.945889     4.241631    -2.521029
 C    -5.587692     1.525166    -1.298755
 H    -6.585174     1.200325    -0.991947
 C    -5.387117     2.831212    -1.746057
 H    -6.222487     3.534186    -1.788006
 C    -3.175762    -1.733022     1.836736
 H    -2.327321    -1.412878     2.469165
 C    -3.228978    -3.246853     1.802655
 H    -2.280128    -3.665962     1.446827
 H    -4.032222    -3.582588     1.129139
 H    -3.424823    -3.646544     2.808751
 C    -4.455933    -1.123584     2.374565
 H    -4.412546    -0.025931     2.345140
 H    -5.314177    -1.445236     1.764506
 H    -4.632562    -1.440889     3.413120
 C    -1.932929     1.674422     1.353296
 H    -2.936686     1.557781     0.910363
 C    -1.243395     2.877703     0.745340
 H    -1.109307     2.741738    -0.333551
 H    -0.247064     3.014865     1.189349
 H    -1.838794     3.788478     0.907708
 C    -2.055635     1.783280     2.860314
 H    -2.547605     0.898218     3.286470
 H    -1.057968     1.871995     3.317673
 H    -2.642290     2.671954     3.137104
 H     2.716050    -0.865381     2.037970
 H     1.228385     0.102217     2.119645
 C     2.978992     1.254377     1.657084
 C     2.423783     2.396568     2.246064
 H     1.419134     2.338088     2.671946
 C     4.275033     1.342583     1.130223
 H     4.717876     0.460671     0.664284
 C     3.130216     3.596904     2.298141
 H     2.674930     4.474798     2.763140
 C     4.980758     2.542505     1.175440
 H     5.988002     2.592734     0.754119
 C     4.411546     3.676122     1.756193
 H     4.967741     4.615859     1.790915
 C     3.465385    -1.922373    -1.639791
 H     2.525747    -2.157191    -2.167983
 C     3.943071    -3.156963    -0.903857
 H     3.173940    -3.488093    -0.192614
 H     4.867669    -2.935514    -0.348338
 H     4.144742    -3.980535    -1.605208
 C     4.485781    -1.382692    -2.620272
 H     4.104145    -0.493501    -3.141616
 H     5.412690    -1.104056    -2.095508
 H     4.732766    -2.144655    -3.374483
 C     2.106427     1.553434    -1.735247
 H     3.155503     1.252528    -1.586216
 C     1.970948     3.028132    -1.422548
 H     2.287155     3.234111    -0.391192
 H     0.926436     3.355259    -1.540051
 H     2.597874     3.621155    -2.105300
 C     1.685295     1.207838    -3.152462
 H     1.745860     0.123506    -3.326961
 H     0.644518     1.520049    -3.333284
 H     2.327810     1.715340    -3.888132
