  92
scf done:    -3878.209740
 C    -0.357953    -3.200003    -2.136075
 H     0.104685    -4.164172    -2.363530
 H    -1.439752    -3.267759    -1.967593
 C     0.202358    -2.004990    -2.631537
 H     1.095209    -2.033756    -3.261845
 H    -0.449616    -1.145236    -2.810821
 H     1.853231    -2.919745    -1.177570
Co     0.659711    -2.240259    -0.676623
 C    -2.491390    -2.315921     0.749680
 O    -0.779998    -0.334876     1.429223
 O    -1.872366    -0.301055    -0.921269
 C     2.287511     0.159565     1.152057
 O     3.595724    -1.205388    -0.788051
 O     2.072583     0.629339    -1.499355
 P     2.058508    -0.687812    -0.452885
 P    -1.088805    -1.324790     0.123477
 C     0.961222    -3.467834     0.506315
 O     1.247580    -4.314074     1.232305
 H    -3.292607    -1.615772     1.040911
 H    -2.884714    -2.894133    -0.102567
 C    -2.119961    -3.236137     1.906119
 H    -1.565138    -2.664522     2.669593
 H    -1.422929    -4.010347     1.552286
 C    -3.339899    -3.890771     2.534808
 H    -4.034918    -3.138420     2.941975
 H    -3.898159    -4.486146     1.795088
 H    -3.052998    -4.562961     3.357253
 C    -1.608374     0.652022     1.892930
 C    -2.585067     0.381432     2.849993
 H    -2.697711    -0.632674     3.236927
 C    -1.440737     1.950726     1.413547
 H    -0.678500     2.148243     0.659917
 C    -3.407424     1.411634     3.302767
 H    -4.177236     1.189684     4.046900
 C    -2.265366     2.968711     1.880187
 H    -2.128279     3.980259     1.488245
 C    -3.268131     2.720573     2.827070
 C    -4.138843     3.831141     3.339032
 H    -5.094161     3.449704     3.727076
 H    -4.358675     4.566261     2.550874
 H    -3.644026     4.374584     4.161346
 C    -3.202848    -0.244308    -1.243972
 C    -4.065216     0.619497    -0.570878
 H    -3.684033     1.235269     0.244274
 C    -3.675745    -1.017788    -2.304554
 H    -2.980852    -1.671556    -2.836934
 C    -5.402113     0.688397    -0.956713
 H    -6.070867     1.369887    -0.423585
 C    -5.014459    -0.936748    -2.675031
 H    -5.373816    -1.545818    -3.509170
 C    -5.905489    -0.087863    -2.006389
 C    -7.355440    -0.031528    -2.391542
 H    -7.488100    -0.129807    -3.479131
 H    -7.820155     0.913329    -2.075420
 H    -7.923331    -0.850920    -1.919671
 H     3.205357     0.767851     1.090752
 H     1.438865     0.850612     1.271788
 C     2.338818    -0.805566     2.328879
 H     3.112374    -1.571680     2.153012
 H     1.381562    -1.345504     2.380894
 C     2.603151    -0.092852     3.644803
 H     3.569494     0.436394     3.626991
 H     1.819081     0.652850     3.852625
 H     2.623807    -0.800838     4.487247
 C     4.725623    -0.457840    -0.580593
 C     5.578269    -0.806356     0.466989
 H     5.314137    -1.652126     1.104656
 C     5.053400     0.609542    -1.417720
 H     4.380955     0.866185    -2.235814
 C     6.745908    -0.079895     0.681642
 H     7.404877    -0.361393     1.507860
 C     6.223744     1.327894    -1.186242
 H     6.469999     2.165765    -1.844803
 C     7.091037     1.002071    -0.136999
 C     8.366878     1.763174     0.080704
 H     9.201906     1.305088    -0.475794
 H     8.652705     1.776935     1.142700
 H     8.279193     2.804234    -0.262729
 C     1.264331     1.725029    -1.410994
 C     1.688446     2.852033    -0.703243
 H     2.658065     2.832173    -0.202598
 C     0.038862     1.752807    -2.077857
 H    -0.282617     0.871108    -2.628721
 C     0.879368     3.985718    -0.653557
 H     1.221156     4.859527    -0.091910
 C    -0.760249     2.889173    -2.016132
 H    -1.727040     2.884403    -2.527002
 C    -0.360270     4.025845    -1.302214
 C    -1.231784     5.247482    -1.251146
 H    -1.186927     5.810278    -2.198306
 H    -0.921831     5.931155    -0.447727
 H    -2.286597     4.979551    -1.085621
