  80
scf done:    -3272.796043
 C     0.294472    -0.807244    -1.704536
 H     1.345737    -1.018403    -1.916924
 H    -0.385635    -1.574889    -2.088747
 C    -0.149799     0.525389    -1.581181
 H     0.553405     1.352857    -1.712132
 H    -1.161886     0.795849    -1.896658
 H    -0.407662     0.745802     1.190263
Co    -0.034804    -0.367774     0.246827
 C    -3.165055     1.083635     0.564567
 C    -3.051826    -1.380712    -0.919991
 C    -2.710179    -1.347496     1.960844
 C     3.349638    -0.770484     0.797206
 C     2.569708     1.863556    -0.048473
 C     1.935158     0.909081     2.614275
 P     1.892867     0.397809     0.840882
 P    -2.163659    -0.479469     0.426222
 C     0.253780    -1.915733     0.954433
 O     0.456087    -2.958498     1.419053
 H    -2.896695     1.503441     1.546118
 H    -4.226716     0.793913     0.599806
 C    -2.936242     2.092004    -0.516099
 C    -3.630172     2.016586    -1.730260
 H    -4.383053     1.236423    -1.871890
 C    -1.993923     3.112194    -0.349734
 H    -1.454212     3.183693     0.596952
 C    -3.367868     2.917220    -2.760204
 H    -3.915626     2.838520    -3.702415
 C    -1.729867     4.014611    -1.376582
 H    -0.984517     4.800068    -1.230181
 C    -2.410003     3.915613    -2.589656
 H    -2.200332     4.620607    -3.397414
 H    -4.140558    -1.228698    -0.821225
 H    -2.750691    -0.889207    -1.860853
 C    -2.715705    -2.866290    -0.976182
 H    -3.118441    -3.370622    -0.081308
 H    -1.621628    -2.990891    -0.923506
 C    -3.252576    -3.543662    -2.227169
 H    -4.348089    -3.447932    -2.298645
 H    -2.821565    -3.093787    -3.135898
 H    -3.009592    -4.617031    -2.239015
 H    -2.198885    -2.324128     1.947837
 H    -2.240332    -0.787508     2.787483
 C    -4.201434    -1.534651     2.203931
 H    -4.660433    -2.043688     1.339117
 H    -4.700183    -0.554240     2.278200
 C    -4.482865    -2.336738     3.466345
 H    -4.030856    -3.339684     3.408595
 H    -4.064155    -1.839074     4.355507
 H    -5.563417    -2.464854     3.631954
 H     3.133430    -1.532827     1.562097
 H     4.243084    -0.215572     1.123577
 C     3.592829    -1.419605    -0.531369
 C     4.294073    -0.746269    -1.540409
 H     4.706745     0.245820    -1.339134
 C     3.101203    -2.701874    -0.805661
 H     2.553679    -3.243639    -0.031832
 C     4.475403    -1.323937    -2.795030
 H     5.021588    -0.779199    -3.569026
 C     3.284747    -3.282513    -2.058150
 H     2.887182    -4.281529    -2.252748
 C     3.965533    -2.593766    -3.060796
 H     4.104443    -3.047632    -4.044800
 H     3.613631     2.033179     0.266564
 H     2.605472     1.582817    -1.114423
 C     1.729406     3.118892     0.137322
 H     1.794677     3.453152     1.187060
 H     0.674292     2.856878    -0.035720
 C     2.144569     4.251905    -0.787110
 H     3.203094     4.523795    -0.645376
 H     2.013123     3.967369    -1.843331
 H     1.543880     5.157356    -0.609403
 H     1.141493     1.667818     2.709896
 H     1.561812     0.033960     3.173483
 C     3.243800     1.418425     3.200904
 H     3.624676     2.257363     2.593291
 H     4.014436     0.631875     3.149039
 C     3.089969     1.873393     4.645134
 H     2.355387     2.690223     4.728984
 H     2.739138     1.049194     5.286394
 H     4.042994     2.236671     5.058870
