  96
scf done:    -5173.456498
 C    -0.331240    -3.738854    -1.013247
 H     0.176330    -3.633469    -1.975376
 H     0.177347    -4.407802    -0.310466
 C    -1.723227    -3.536801    -0.920511
 H    -2.305098    -3.282768    -1.811094
 H    -2.300982    -4.057909    -0.149644
 H    -0.799724    -1.456466    -1.590569
Co    -0.733404    -1.928284    -0.196798
 O    -2.122550     0.717015    -1.397002
 C    -3.888395    -1.085854    -0.610185
 C    -2.533022     0.606103     1.292701
 O     1.458491     0.001369     1.089582
 C     2.425611    -2.438552     0.370073
 C     1.960922    -0.263408    -1.575328
 P     1.236192    -1.152855    -0.154067
 P    -2.237341    -0.449429    -0.171572
 C    -0.813839    -2.500406     1.461664
 O    -0.897948    -2.917438     2.529289
 C    -1.804232     2.021059    -1.226857
 C    -2.516508     2.970718    -1.963713
 H    -3.318911     2.630803    -2.620569
 C    -0.775132     2.434642    -0.376294
 H    -0.213471     1.693922     0.193985
 C    -2.209063     4.322561    -1.850407
 H    -2.759730     5.069262    -2.425002
 C    -0.474906     3.787522    -0.248864
 H     0.320583     4.113328     0.423390
 C    -1.192102     4.727135    -0.985823
Cl    -0.816984     6.414684    -0.829782
 C    -4.486177    -0.853657    -1.845106
 H    -3.984876    -0.188431    -2.549995
 C    -4.515867    -1.946660     0.308306
 O    -3.861834    -2.122903     1.472803
 C    -4.353797    -3.022202     2.425732
 H    -5.330048    -2.697371     2.825711
 H    -3.617195    -3.042825     3.238102
 H    -4.455792    -4.039231     2.008508
 C    -5.702039    -1.455787    -2.172463
 H    -6.161814    -1.267102    -3.144932
 C    -5.735234    -2.547752    -0.011204
 H    -6.231364    -3.209311     0.699542
 C    -6.321172    -2.296979    -1.253030
 H    -7.274230    -2.772080    -1.498054
 C    -1.630855     0.545230     2.354113
 H    -0.774567    -0.126209     2.275016
 C    -3.596341     1.531950     1.351826
 O    -4.404323     1.583566     0.281460
 C    -5.437289     2.525223     0.230014
 H    -6.163089     2.381872     1.049021
 H    -5.949571     2.368125    -0.727502
 H    -5.045989     3.556779     0.266335
 C    -1.777551     1.356880     3.476778
 H    -1.056933     1.297021     4.294394
 C    -3.746315     2.350356     2.475759
 H    -4.561257     3.072210     2.530009
 C    -2.839568     2.253834     3.530521
 H    -2.966093     2.903473     4.400271
 C     2.534547     0.823672     1.252557
 C     2.670180     1.977912     0.474929
 H     1.932370     2.201559    -0.295129
 C     3.484996     0.544261     2.237886
 H     3.375740    -0.351527     2.847902
 C     3.756238     2.828083     0.660814
 H     3.868528     3.722609     0.046091
 C     4.569941     1.393103     2.431397
 H     5.316584     1.175008     3.196750
 C     4.707401     2.527694     1.633325
Cl     6.081729     3.566477     1.843298
 C     2.582314    -2.709616     1.727873
 H     2.057905    -2.083593     2.452724
 C     3.039254    -3.292332    -0.565977
 O     2.793792    -3.019357    -1.861579
 C     3.400871    -3.785783    -2.860559
 H     4.502335    -3.735486    -2.800042
 H     3.076751    -3.360346    -3.818617
 H     3.087110    -4.843275    -2.812346
 C     3.375288    -3.769669     2.169476
 H     3.486806    -3.961299     3.238566
 C     3.840836    -4.350254    -0.131383
 H     4.329321    -5.006219    -0.852373
 C     4.009531    -4.580391     1.235202
 H     4.634517    -5.414497     1.563075
 C     1.074454     0.304140    -2.491532
 H     0.005817     0.115730    -2.364785
 C     3.344346    -0.020785    -1.729292
 O     4.159942    -0.562711    -0.813363
 C     5.521871    -0.238241    -0.802455
 H     6.036073    -0.602558    -1.708990
 H     5.948402    -0.737953     0.075951
 H     5.677743     0.849459    -0.705839
 C     1.524065     1.105814    -3.539773
 H     0.807576     1.550612    -4.232590
 C     3.799497     0.770761    -2.787943
 H     4.865126     0.964437    -2.910692
 C     2.888568     1.331503    -3.682848
 H     3.260539     1.956376    -4.498807
