  52
scf done:    -2954.667971
 C     0.699023     2.221718    -2.021131
 H     1.035084     3.195916    -1.652187
 H     1.419652     1.715800    -2.669052
 C    -0.679887     1.954271    -2.139353
 H    -1.409053     2.725404    -1.867828
 H    -1.039070     1.260106    -2.905446
 H     0.465075    -0.141853    -1.431637
Co     0.105011     0.992285    -0.535738
 C     2.056135    -1.471483     0.719409
 O     3.127821     0.369013    -0.956320
 O     2.568093     1.103612     1.450556
 C    -2.987515     0.524635     0.717128
 O    -2.362689    -0.947356    -1.343537
 O    -1.144373    -1.546789     0.829571
 P    -1.533943    -0.231370    -0.103437
 P     1.923600     0.275928     0.168695
 C    -0.150128     2.221504     0.684910
 O    -0.294093     3.008781     1.507876
 H     3.040257    -1.652416     1.182251
 H     1.289769    -1.592168     1.502835
 C     1.810247    -2.473319    -0.400493
 H     2.551607    -2.316098    -1.201749
 H     0.828350    -2.261589    -0.848197
 C     1.852147    -3.913183     0.083882
 H     2.830368    -4.166112     0.524141
 H     1.087581    -4.090205     0.857360
 H     1.665600    -4.620169    -0.739102
 C     4.482439     0.197926    -0.633522
 H     4.825487     0.963858     0.081806
 H     4.693251    -0.802784    -0.213275
 H     5.060771     0.305739    -1.562098
 C     3.250977     0.580838     2.559194
 H     2.623484    -0.113904     3.142650
 H     4.184055     0.059731     2.282503
 H     3.514178     1.429485     3.207031
 H    -2.673943     0.683652     1.764507
 H    -3.036692     1.533222     0.271544
 C    -4.355945    -0.139782     0.629415
 H    -4.343920    -1.113354     1.143081
 H    -4.573676    -0.358177    -0.427164
 C    -5.452079     0.731278     1.224629
 H    -5.263964     0.945197     2.289135
 H    -5.518729     1.699284     0.702653
 H    -6.436653     0.244612     1.150839
 C    -1.694253    -1.643912    -2.365025
 H    -2.394637    -1.758811    -3.204345
 H    -0.800346    -1.096929    -2.708556
 H    -1.379457    -2.647170    -2.027601
 C    -2.042062    -2.584092     1.145372
 H    -2.628510    -2.345378     2.048853
 H    -2.736652    -2.790491     0.315308
 H    -1.452075    -3.490937     1.346142
