 108
scf done:    -3439.557645
 C    -0.618518     2.309358     2.399554
 H    -1.369008     3.084343     2.205946
 H    -0.820613     1.716395     3.298478
 C     0.720617     2.521377     1.993633
 H     0.987908     3.461301     1.499120
 H     1.536213     2.094033     2.587611
 H     0.262195     0.135704     1.757426
Co    -0.181529     1.179796     0.794633
 C    -1.992850    -1.429751     2.009915
 C    -3.502877     0.864122     1.383040
 C    -2.514294    -0.782048    -0.766346
 C     1.096264    -1.202103    -1.196193
 C     2.388268     1.333852    -1.457930
 C     2.844857    -0.250265     0.943429
 P     1.503593     0.305163    -0.204985
 P    -1.974461    -0.011533     0.827494
 C    -0.631711     2.234411    -0.519616
 O    -0.885544     2.878444    -1.443424
 H    -3.013376    -1.844077     2.076214
 H    -1.763934    -0.973060     2.986090
 C    -0.987464    -2.519170     1.678999
 H    -1.241894    -2.967414     0.702636
 H     0.005047    -2.050830     1.558923
 C    -0.869769    -3.645990     2.708154
 H    -1.876789    -4.082303     2.849848
 C     0.045638    -4.741943     2.173363
 H    -0.321121    -5.142990     1.215422
 H     0.129580    -5.580996     2.881177
 H     1.062253    -4.349387     2.000775
 C    -0.378487    -3.140890     4.060041
 H    -0.277494    -3.967767     4.779880
 H    -1.062915    -2.401722     4.501936
 H     0.609334    -2.660228     3.959949
 H    -4.326139     0.134051     1.470461
 H    -3.285481     1.220012     2.403834
 C    -3.915416     2.032910     0.502958
 H    -3.076948     2.744124     0.427473
 H    -4.104924     1.682407    -0.527323
 C    -5.149943     2.761469     1.015382
 H    -4.959915     3.116931     2.044634
 H    -5.992086     2.049606     1.096360
 C    -5.564695     3.938092     0.143089
 H    -4.717763     4.641967     0.062174
 H    -5.749553     3.578122    -0.884656
 C    -6.793338     4.669767     0.658424
 H    -7.067638     5.513697     0.007404
 H    -6.623235     5.072165     1.670127
 H    -7.664633     3.997293     0.715948
 H    -2.577581     0.048500    -1.490544
 H    -1.662024    -1.390688    -1.107318
 C    -3.789066    -1.610525    -0.780995
 H    -3.735102    -2.399957    -0.010809
 H    -4.653146    -0.980848    -0.506964
 C    -4.053406    -2.259695    -2.133427
 H    -3.189281    -2.893610    -2.406049
 H    -4.103394    -1.475685    -2.910835
 C    -5.324898    -3.095492    -2.174058
 H    -5.271182    -3.872708    -1.390946
 H    -6.184883    -2.458155    -1.901726
 C    -5.577286    -3.746258    -3.524436
 H    -6.501851    -4.343191    -3.522658
 H    -4.749056    -4.416693    -3.805475
 H    -5.671001    -2.990282    -4.320650
 H     0.433631    -0.830687    -1.997832
 H     0.454890    -1.799721    -0.533625
 C     2.196894    -2.071922    -1.781825
 H     2.909480    -1.453919    -2.353531
 H     2.777961    -2.535350    -0.964778
 C     1.683997    -3.187278    -2.699727
 H     1.141357    -2.703406    -3.534038
 C     2.854277    -3.965372    -3.290047
 H     3.550829    -3.301199    -3.825233
 H     2.510871    -4.734798    -3.998725
 H     3.424874    -4.475793    -2.496072
 C     0.710142    -4.123741    -1.991471
 H     0.398664    -4.944950    -2.655223
 H    -0.202810    -3.604556    -1.662408
 H     1.176430    -4.574541    -1.098941
 H     3.241379     0.769510    -1.870358
 H     1.673460     1.478725    -2.286382
 C     2.846028     2.686781    -0.932827
 H     1.969319     3.249239    -0.575862
 H     3.487151     2.550352    -0.043733
 C     3.594312     3.509495    -1.971347
 H     2.951879     3.641015    -2.861132
 H     4.479167     2.946359    -2.321762
 C     4.033909     4.874256    -1.460061
 H     3.145932     5.429647    -1.110225
 H     4.669462     4.737730    -0.566967
 C     4.778632     5.698538    -2.497584
 H     5.082354     6.678156    -2.098287
 H     4.152799     5.881317    -3.386006
 H     5.690032     5.181877    -2.839800
 H     2.813765     0.458647     1.785288
 H     2.484294    -1.207395     1.360823
 C     4.271210    -0.385992     0.429897
 H     4.310108    -1.042500    -0.453597
 H     4.637491     0.597067     0.088695
 C     5.222340    -0.924829     1.490515
 H     4.867519    -1.915703     1.829175
 H     5.180512    -0.274040     2.382872
 C     6.663544    -1.040189     1.014196
 H     6.697451    -1.687178     0.119473
 H     7.012304    -0.048054     0.676514
 C     7.609424    -1.581764     2.073759
 H     8.642165    -1.652842     1.700100
 H     7.305186    -2.588133     2.404016
 H     7.622179    -0.934683     2.965596
