  88
scf done:    -3577.427923
 C     0.598485    -3.241387     1.171964
 H     1.217147    -3.937678     0.594307
 H     0.981648    -3.048240     2.178775
 C    -0.792748    -3.204050     0.918816
 H    -1.214047    -3.861603     0.150959
 H    -1.495352    -2.977717     1.726781
 H    -0.170410    -1.030080     1.552449
Co     0.081706    -1.548302     0.197587
 C     1.794061     0.868388     1.885947
 C     3.455917    -0.736157     0.210935
 C     1.720628     1.140731    -0.964017
 C    -1.647025     0.566756    -1.855946
 C    -3.265195    -1.010060    -0.140584
 C    -1.738091     1.145729     0.982661
 P    -1.595580    -0.250453    -0.198570
 P     1.721374    -0.145724     0.349374
 C     0.357027    -2.140358    -1.428577
 O     0.511368    -2.526351    -2.503233
 H     2.596173     1.618932     1.785701
 H     0.834603     1.408338     1.945833
 C     1.992344     0.035088     3.142664
 H     2.955737    -0.499539     3.082850
 H     1.211021    -0.742179     3.173432
 C     1.938223     0.877342     4.407414
 H     2.724356     1.649706     4.411445
 H     0.967628     1.392403     4.494457
 H     2.073447     0.260032     5.308665
 C     3.730855    -2.102566     0.186722
 H     2.897452    -2.804419     0.236127
 C     4.526431     0.166633     0.134361
 H     4.332633     1.243127     0.125117
 C     5.045772    -2.560387     0.097734
 H     5.240048    -3.636404     0.078677
 C     5.833463    -0.293969     0.047841
 H     6.655396     0.425398    -0.014193
 C     6.118006    -1.668291     0.029438
 C     7.535170    -2.151868    -0.068198
 H     8.139106    -1.787205     0.778023
 H     7.587659    -3.249426    -0.072392
 H     8.017573    -1.786457    -0.988828
 C     1.423020     2.485221    -0.730523
 H     1.267232     2.848708     0.285825
 C     1.922266     0.729344    -2.291120
 H     2.165591    -0.314767    -2.503458
 C     1.291109     3.381564    -1.793522
 H     1.045696     4.426895    -1.584115
 C     1.798756     1.625965    -3.342885
 H     1.954293     1.275639    -4.367244
 C     1.462657     2.969772    -3.116563
 C     1.282005     3.918564    -4.264526
 H     2.133120     3.872753    -4.961311
 H     0.377814     3.667731    -4.843441
 H     1.179607     4.956785    -3.918824
 H    -0.787747     1.257123    -1.881598
 H    -1.389110    -0.230378    -2.572929
 C    -2.933637     1.261879    -2.278650
 H    -3.282411     1.939461    -1.481547
 H    -3.731422     0.510363    -2.392211
 C    -2.758612     2.040361    -3.574213
 H    -1.996847     2.829708    -3.463707
 H    -2.427518     1.380912    -4.392560
 H    -3.697782     2.520116    -3.889622
 C    -3.455099    -2.213643    -0.831836
 H    -2.603301    -2.690078    -1.323396
 C    -4.366677    -0.423696     0.488399
 H    -4.250281     0.521028     1.024228
 C    -4.710927    -2.805347    -0.897504
 H    -4.835455    -3.741506    -1.449349
 C    -5.620424    -1.030574     0.432752
 H    -6.468083    -0.555101     0.934565
 C    -5.817380    -2.229403    -0.258722
 C    -7.160824    -2.896683    -0.296704
 H    -7.206481    -3.730716     0.423410
 H    -7.967674    -2.195440    -0.040484
 H    -7.373596    -3.316767    -1.291209
 C    -1.576279     2.484167     0.620822
 H    -1.443249     2.761409    -0.425289
 C    -1.896090     0.846168     2.345730
 H    -2.008355    -0.195875     2.656134
 C    -1.547756     3.488801     1.590876
 H    -1.403807     4.527466     1.279910
 C    -1.884665     1.849089     3.304657
 H    -2.009054     1.585173     4.358868
 C    -1.695264     3.193262     2.946935
 C    -1.642412     4.263525     3.996700
 H    -2.541907     4.245250     4.631831
 H    -0.775610     4.120847     4.662320
 H    -1.561957     5.264418     3.550351
