 106
scf done:    -4261.276486
 C    -1.571908    -1.055771    -3.183294
 H    -2.171918    -1.949814    -3.384416
 H    -2.053958    -0.131428    -3.521921
 C    -0.163612    -1.161183    -3.182044
 H     0.308566    -2.130521    -3.370081
 H     0.446699    -0.307509    -3.497931
 H    -0.580048     0.476028    -1.500637
Co    -0.853132    -0.954223    -1.297768
 C    -3.041698     1.679331    -1.108774
 C    -4.065993    -0.720358    -0.168596
 C    -2.083033     0.523868     1.421351
 C     1.074244    -0.871755     1.503563
 C     2.384130    -1.954856    -0.804409
 C     1.884433     0.854494    -0.701894
 P     1.077802    -0.751094    -0.362843
 P    -2.424547     0.093240    -0.326203
 C    -1.229842    -2.561647    -0.717883
 O    -1.494938    -3.576462    -0.237240
 H    -3.537009     1.303422    -2.018486
 H    -3.838966     2.062876    -0.454158
 C    -2.083851     2.777177    -1.468306
 C    -2.102926     3.992475    -0.771387
 H    -2.809676     4.130734     0.051671
 C    -1.190513     2.642670    -2.539061
 H    -1.176310     1.710147    -3.105678
 C    -1.248930     5.031559    -1.134504
 H    -1.282495     5.977685    -0.587814
 C    -0.327060     3.673993    -2.918743
 C     0.592817     3.511527    -4.093020
 H     1.518761     4.087762    -3.954505
 H     0.866088     2.457634    -4.241333
 H     0.112129     3.866712    -5.020130
 C    -0.366721     4.873659    -2.199758
 H     0.294704     5.694446    -2.490782
 C    -4.403696    -1.774515    -1.027835
 H    -3.664412    -2.124906    -1.750184
 C    -5.028197    -0.280856     0.745524
 H    -4.790785     0.534191     1.435082
 C    -5.654348    -2.370860    -0.973008
 H    -5.920951    -3.195328    -1.636772
 C    -6.287828    -0.872009     0.816766
 H    -7.007825    -0.506899     1.549582
 C    -6.608326    -1.926558    -0.048036
 O    -7.793520    -2.565714    -0.058094
 C    -8.785139    -2.168167     0.846271
 H    -9.085969    -1.116866     0.691164
 H    -9.653197    -2.814856     0.666014
 H    -8.459814    -2.292602     1.894318
 C    -2.209009    -0.483609     2.395802
 H    -2.633162    -1.452576     2.118233
 C    -1.522659     1.740951     1.809470
 H    -1.398393     2.541355     1.079207
 C    -1.785115    -0.280410     3.697099
 H    -1.872767    -1.063552     4.452410
 C    -1.075563     1.955301     3.116873
 H    -0.632845     2.917883     3.374792
 C    -1.195280     0.938409     4.068849
 O    -0.779411     1.034731     5.345221
 C    -0.067323     2.174647     5.736108
 H    -0.680145     3.090640     5.662746
 H     0.217845     2.024009     6.784902
 H     0.847881     2.308106     5.132038
 H     0.452937    -0.038478     1.858778
 H     0.497554    -1.788038     1.699233
 C     2.396272    -0.914186     2.197528
 C     3.024308    -2.139925     2.451644
 H     2.526065    -3.068473     2.161798
 C     3.059762     0.261256     2.566843
 H     2.579646     1.224250     2.379128
 C     4.283699    -2.178307     3.041176
 H     4.767501    -3.140747     3.224716
 C     4.328471     0.242465     3.154494
 C     5.000700     1.526373     3.549246
 H     4.660367     1.863181     4.543194
 H     6.093089     1.411643     3.600087
 H     4.773610     2.332171     2.835256
 C     4.937454    -0.996214     3.383260
 H     5.932186    -1.033627     3.836150
 C     3.745330    -1.707571    -0.548340
 H     4.054103    -0.754308    -0.114029
 C     2.034005    -3.191640    -1.346411
 H     0.985227    -3.404929    -1.558731
 C     4.709386    -2.659978    -0.830857
 H     5.765893    -2.472961    -0.630756
 C     2.992023    -4.167188    -1.623492
 H     2.673417    -5.120940    -2.044351
 C     4.341440    -3.902394    -1.368268
 O     5.344740    -4.769183    -1.605336
 C     5.038288    -6.026168    -2.139817
 H     4.559445    -5.945645    -3.131706
 H     5.989326    -6.562967    -2.248005
 H     4.375295    -6.605781    -1.473359
 C     2.704819     1.029655    -1.825716
 H     2.970304     0.169001    -2.444041
 C     1.556696     1.983655     0.050510
 H     0.887610     1.891609     0.907172
 C     3.190666     2.283453    -2.167389
 H     3.830186     2.423429    -3.040949
 C     2.039825     3.247874    -0.276769
 H     1.743259     4.103593     0.329325
 C     2.859212     3.404980    -1.398082
 O     3.348440     4.590707    -1.822935
 C     3.155554     5.721147    -1.019995
 H     3.596300     5.586990    -0.016073
 H     3.661775     6.555334    -1.522468
 H     2.086345     5.969331    -0.905336
