  62
scf done:    -3037.122582
 C    -0.889416    -3.775982    -0.600723
 H    -1.261850    -4.346150     0.257867
 H    -1.621451    -3.667994    -1.408370
 C     0.492006    -3.807851    -0.912740
 H     1.169348    -4.408994    -0.295993
 H     0.809964    -3.720423    -1.956553
 H    -0.296995    -1.597436    -1.500410
Co    -0.009913    -2.040592    -0.103670
 C    -2.584228    -0.048971    -1.038703
 C    -3.109364    -1.812699     1.187142
 C    -1.532928     0.490244     1.603314
 C     2.777174    -0.308838     0.804228
 C     2.773382    -1.412188    -1.861534
 C     1.218640     0.878317    -1.306771
 P     1.623373    -0.764273    -0.592370
 P    -1.743816    -0.880585     0.396525
 C     0.441758    -2.417965     1.540000
 O     0.756439    -2.615943     2.630823
 H    -1.803120     0.565561    -1.511215
 H    -2.802975    -0.866908    -1.742461
 C    -3.803906     0.758189    -0.726541
 C    -5.075066     0.171736    -0.716591
 H    -5.184530    -0.883346    -0.980640
 C    -3.696384     2.115923    -0.399794
 H    -2.708652     2.587265    -0.416676
 C    -6.196117     0.925184    -0.376734
 H    -7.183485     0.456806    -0.371164
 C    -4.809929     2.888946    -0.059039
 C    -4.667123     4.350695     0.253270
 H    -3.645386     4.597638     0.575483
 H    -4.890417     4.966489    -0.633986
 H    -5.361647     4.662547     1.047257
 C    -6.066292     2.271279    -0.045538
 H    -6.951661     2.854536     0.222157
 H    -2.718175    -2.274126     2.105957
 H    -3.970233    -1.173565     1.434124
 H    -3.428761    -2.622196     0.515556
 H    -2.476799     1.009147     1.828401
 H    -1.121168     0.062308     2.529828
 H    -0.804817     1.218985     1.217565
 H     2.129211     0.132056     1.578522
 H     3.129252    -1.270932     1.208796
 C     3.921357     0.595696     0.475067
 C     5.145981     0.079910     0.033614
 H     5.283370    -1.002542    -0.031732
 C     3.781751     1.986518     0.566212
 H     2.833325     2.400255     0.923127
 C     6.186813     0.936650    -0.316209
 H     7.137867     0.522604    -0.660298
 C     4.815835     2.862004     0.222915
 C     4.646960     4.347229     0.365559
 H     3.586957     4.638156     0.341316
 H     5.063058     4.700327     1.323934
 H     5.170101     4.890899    -0.434909
 C     6.023781     2.316628    -0.228139
 H     6.845881     2.981686    -0.506625
 H     3.206423    -2.357881    -1.505595
 H     2.190121    -1.628939    -2.767876
 H     3.578441    -0.700868    -2.098489
 H     0.596240     1.450228    -0.603081
 H     2.120637     1.462195    -1.542150
 H     0.636593     0.715062    -2.225071
