 104
scf done:    -4035.350105
 C    -0.897543    -3.384205    -1.103717
 H    -1.810600    -3.825616    -0.691675
 H    -0.931451    -3.214083    -2.184699
 C     0.342453    -3.600847    -0.471429
 H     0.393279    -4.223170     0.427638
 H     1.267771    -3.584348    -1.051830
 H     0.389497    -1.345229    -1.317349
Co    -0.329783    -1.724311    -0.085847
 C    -1.603532     0.190083    -2.600140
 O    -3.333587    -0.932518    -1.036009
 O    -1.896607     0.995547     0.005760
 C     0.902304     0.424069     2.192230
 O     2.669491    -1.221599     1.129377
 O     1.707463     0.608730    -0.419331
 P     1.211303    -0.546538     0.680884
 P    -1.748611    -0.416342    -0.889218
 C    -1.005388    -2.163637     1.481518
 O    -1.347837    -2.459726     2.536418
 H    -2.573635     0.581489    -2.940063
 H    -1.405882    -0.728257    -3.176346
 C    -0.481125     1.208846    -2.761059
 H    -0.870693     2.203541    -2.488782
 H     0.329221     0.989614    -2.048277
 C     0.134469     1.267266    -4.160882
 H    -0.685689     1.349357    -4.899321
 C     1.013982     2.506153    -4.287417
 H     0.435052     3.428293    -4.122863
 H     1.479947     2.571991    -5.282920
 H     1.823085     2.485273    -3.538101
 C     0.934643     0.005911    -4.471510
 H     1.350318     0.036539    -5.490554
 H     0.325952    -0.907943    -4.391316
 H     1.775774    -0.097930    -3.765890
 C    -3.961128    -1.653511    -0.057608
 C    -4.008311    -1.193226     1.255969
 H    -3.519575    -0.249357     1.507378
 C    -4.578948    -2.851748    -0.416285
 H    -4.527218    -3.185033    -1.454067
 C    -4.650709    -1.942589     2.247841
 C    -4.619965    -1.476906     3.673136
 H    -4.812258    -0.396146     3.748830
 H    -5.361736    -2.004093     4.289187
 H    -3.624550    -1.664116     4.108806
 C    -5.239327    -3.586782     0.562432
 H    -5.728960    -4.525931     0.293628
 C    -5.270697    -3.141546     1.884225
 H    -5.781174    -3.735836     2.646231
 C    -2.596803     2.132875    -0.280869
 C    -3.810619     2.128344    -0.967453
 H    -4.237016     1.179496    -1.296125
 C    -2.058738     3.333849     0.192920
 H    -1.122719     3.310355     0.753702
 C    -4.487532     3.329508    -1.217795
 C    -5.785956     3.307046    -1.971325
 H    -5.635893     2.966886    -3.008648
 H    -6.503236     2.613248    -1.506093
 H    -6.248993     4.302792    -2.007698
 C    -2.732954     4.524433    -0.048759
 H    -2.315632     5.464423     0.320412
 C    -3.935725     4.527191    -0.755829
 H    -4.456987     5.469248    -0.942682
 H     0.311907    -0.248479     2.837155
 H     0.188376     1.190176     1.844837
 C     2.061506     1.014957     2.981517
 H     2.716066     0.192509     3.310207
 H     2.682341     1.657611     2.339557
 C     1.618439     1.835755     4.195439
 H     0.979850     1.190720     4.828744
 C     2.836752     2.245006     5.015299
 H     3.416705     1.367194     5.340202
 H     2.547230     2.811023     5.914262
 H     3.507652     2.885523     4.418490
 C     0.802804     3.060708     3.792830
 H     0.525618     3.659806     4.673947
 H    -0.131166     2.790130     3.276925
 H     1.385488     3.706989     3.114701
 C     3.320024    -2.143719     0.355995
 C     3.447067    -1.985296    -1.023889
 H     3.002475    -1.114006    -1.507640
 C     3.875277    -3.251278     0.997235
 H     3.757854    -3.350946     2.077479
 C     4.112337    -2.948825    -1.790748
 C     4.204047    -2.778181    -3.279543
 H     3.202387    -2.791303    -3.738778
 H     4.664567    -1.813082    -3.542959
 H     4.798926    -3.577347    -3.742858
 C     4.549066    -4.202319     0.239174
 H     4.983814    -5.075147     0.732243
 C     4.663699    -4.058696    -1.144158
 H     5.186812    -4.819052    -1.729402
 C     2.499462     1.695572    -0.170806
 C     3.872502     1.549432     0.018990
 H     4.310114     0.549743    -0.006193
 C     1.905717     2.958002    -0.161238
 H     0.833473     3.041905    -0.342914
 C     4.673341     2.668721     0.270622
 C     6.143355     2.499326     0.522873
 H     6.322129     2.073874     1.523992
 H     6.597818     1.810938    -0.205298
 H     6.676118     3.458849     0.468185
 C     2.701137     4.073726     0.081646
 H     2.247420     5.067686     0.094741
 C     4.070328     3.931596     0.304728
 H     4.684118     4.814988     0.498037
