  98
scf done:    -4032.337024
 C    -0.953500    -1.565038     2.637865
 H    -0.682738    -1.253007     3.651034
 H    -2.030314    -1.581214     2.443264
 C    -0.088802    -2.364605     1.900587
 H     0.848681    -2.719802     2.331773
 H    -0.503768    -2.995592     1.108812
 H     0.138673    -1.066493    -0.039953
Co     0.080877    -0.374408     1.255778
 C    -2.332583    -1.623389    -0.450609
 C    -3.194920     0.803871     1.029588
 C    -1.744183     1.085876    -1.369951
 C     1.828162     1.271137    -0.861784
 C     3.423395     0.569008     1.478836
 C     2.880533    -1.444586    -0.474977
 P     2.027985    -0.047812     0.404694
 P    -1.750120     0.031990     0.155823
 C     0.319612     0.915997     2.393744
 O     0.538321     1.805176     3.099905
 C    -1.519445    -2.281133    -1.384929
 H    -0.623221    -1.771847    -1.748922
 C    -3.420029    -2.345026     0.085358
 O    -4.141008    -1.747768     1.049865
 C    -5.273797    -2.369389     1.583534
 H    -6.023407    -2.592035     0.804202
 H    -5.703321    -1.656097     2.298399
 H    -5.018153    -3.303294     2.113998
 C    -1.792237    -3.569121    -1.835291
 H    -1.132627    -4.042067    -2.565670
 C    -3.701013    -3.642980    -0.365931
 H    -4.545763    -4.192202     0.049684
 C    -2.896120    -4.247134    -1.325794
 H    -3.126652    -5.262012    -1.658510
 C    -2.990993     1.144844     2.368577
 H    -2.029437     0.913868     2.826401
 C    -4.438314     1.096787     0.424224
 C    -4.780110     0.751620    -0.995353
 H    -4.361198    -0.215963    -1.300724
 H    -4.386628     1.503591    -1.697119
 H    -5.871156     0.710855    -1.124677
 C    -3.973867     1.780782     3.122450
 H    -3.778730     2.039375     4.165659
 C    -5.413359     1.736698     1.198163
 H    -6.378384     1.963845     0.735884
 C    -5.194632     2.083161     2.529671
 H    -5.980639     2.585171     3.099502
 C    -1.941960     0.555209    -2.651612
 H    -2.088664    -0.516953    -2.776606
 C    -1.599835     2.485779    -1.227899
 C    -1.401426     3.160968     0.095291
 H    -0.763224     2.567525     0.763083
 H    -2.361186     3.307793     0.615177
 H    -0.934253     4.145311    -0.043657
 C    -2.017201     1.369001    -3.777423
 H    -2.190989     0.920877    -4.759124
 C    -1.688175     3.285749    -2.374224
 H    -1.580847     4.367530    -2.258127
 C    -1.899662     2.748798    -3.638212
 H    -1.967201     3.404830    -4.509489
 C     1.821700     2.618735    -0.486776
 H     1.923609     2.877829     0.568991
 C     1.552057     0.961716    -2.210805
 O     1.388067    -0.341334    -2.509149
 C     1.342737    -0.754126    -3.845622
 H     0.442992    -0.373867    -4.358929
 H     1.313762    -1.851372    -3.827224
 H     2.241493    -0.430583    -4.398395
 C     1.699895     3.638410    -1.427936
 H     1.721114     4.681642    -1.106206
 C     1.453598     1.980015    -3.162575
 H     1.267126     1.736613    -4.208028
 C     1.546863     3.312783    -2.771302
 H     1.459838     4.098986    -3.524635
 C     4.179526     1.709290     1.175371
 H     3.979353     2.265507     0.261246
 C     3.748974    -0.158852     2.647896
 C     3.025339    -1.406136     3.046147
 H     3.126906    -2.191422     2.280100
 H     1.949580    -1.205858     3.145636
 H     3.412952    -1.799792     3.995434
 C     5.209525     2.152944     1.999289
 H     5.772698     3.048355     1.725957
 C     4.791130     0.300392     3.462285
 H     5.032105    -0.267474     4.364937
 C     5.516228     1.446522     3.156997
 H     6.319307     1.780928     3.818144
 C     2.243128    -2.688217    -0.415663
 H     1.293989    -2.751365     0.112224
 C     4.094018    -1.330351    -1.192716
 C     4.862513    -0.053315    -1.360797
 H     5.430413     0.193216    -0.451096
 H     4.206780     0.801718    -1.572488
 H     5.578897    -0.147120    -2.188873
 C     2.771956    -3.819346    -1.030468
 H     2.242656    -4.772746    -0.961677
 C     4.606746    -2.480837    -1.806937
 H     5.540341    -2.393990    -2.369995
 C     3.968485    -3.715190    -1.730927
 H     4.404777    -4.587366    -2.224301
