 102
scf done:    -4333.243312
 C     0.122410     3.761465    -0.609434
 H     0.748033     4.010768     0.250444
 H     0.557200     4.041796    -1.573712
 C    -1.266392     3.650788    -0.460904
 H    -1.728358     3.808354     0.516588
 H    -1.933189     3.854131    -1.303997
 H    -0.299094     1.859940     0.896900
Co    -0.427961     1.791755    -0.577294
 O    -1.253148    -0.651145     1.193648
 O    -3.041573     1.071369     1.151577
 O    -2.827721    -0.421487    -0.796671
 O     1.582273    -0.467098    -1.393390
 O     2.841817     1.565011    -0.846266
 O     1.751343     0.282828     1.086731
 P     1.408161     0.837095    -0.418344
 P    -1.837985     0.493405     0.178887
 C    -0.729221     1.626723    -2.310027
 O    -0.962884     1.520469    -3.424507
 C    -1.884154    -1.817289     1.565796
 C    -3.145202    -1.816265     2.152738
 H    -3.648285    -0.864390     2.325549
 C    -1.202881    -3.011249     1.328850
 H    -0.223472    -2.976681     0.852323
 C    -3.765803    -3.027635     2.483431
 C    -5.131719    -3.021276     3.106889
 H    -5.101603    -2.591702     4.121282
 H    -5.835109    -2.410296     2.520269
 H    -5.544269    -4.036803     3.185335
 C    -1.812664    -4.213012     1.664070
 H    -1.294441    -5.153957     1.465806
 C    -3.088068    -4.223921     2.229815
 H    -3.564054    -5.175451     2.480964
 C    -3.847241     2.129636     0.828926
 C    -4.347052     2.309813    -0.458464
 H    -4.107125     1.579313    -1.233779
 C    -4.165126     3.024289     1.851549
 H    -3.757849     2.853764     2.849481
 C    -5.152599     3.416240    -0.753958
 C    -5.656051     3.618869    -2.153610
 H    -4.821986     3.806430    -2.849125
 H    -6.184870     2.725623    -2.520641
 H    -6.344571     4.472865    -2.215641
 C    -4.978971     4.113708     1.563332
 H    -5.232962     4.821969     2.355646
 C    -5.462635     4.315705     0.270123
 H    -6.093006     5.181745     0.053602
 C    -2.518079    -1.650316    -1.325308
 C    -3.497752    -2.635582    -1.236733
 H    -4.445690    -2.380939    -0.758319
 C    -1.281056    -1.920362    -1.908342
 H    -0.509599    -1.153678    -1.968004
 C    -3.248961    -3.929468    -1.699590
 C    -4.287783    -4.999596    -1.533562
 H    -4.391733    -5.271304    -0.470097
 H    -5.275430    -4.659542    -1.880380
 H    -4.023975    -5.909647    -2.090333
 C    -1.034009    -3.208288    -2.378065
 H    -0.064679    -3.431037    -2.830967
 C    -2.001359    -4.205304    -2.271978
 H    -1.788469    -5.212932    -2.638320
 C     2.631916    -1.345564    -1.548414
 C     2.471321    -2.639391    -1.065236
 H     1.538177    -2.896532    -0.561900
 C     3.793720    -0.963383    -2.215296
 H     3.887260     0.053651    -2.594193
 C     3.497624    -3.578430    -1.195337
 C     3.337374    -4.950282    -0.610231
 H     3.420484    -4.907542     0.488179
 H     2.349533    -5.374128    -0.846333
 H     4.106708    -5.641953    -0.980881
 C     4.813044    -1.901123    -2.358684
 H     5.732140    -1.619436    -2.878490
 C     4.673002    -3.191286    -1.848909
 H     5.486417    -3.912414    -1.963249
 C     3.264729     2.773505    -0.358689
 C     3.213757     3.078438     1.000396
 H     2.806734     2.348008     1.701961
 C     3.782505     3.687901    -1.276267
 H     3.806575     3.421077    -2.334104
 C     3.666459     4.320335     1.462815
 C     3.578909     4.648255     2.925048
 H     4.036795     3.857666     3.539172
 H     4.082471     5.596862     3.156877
 H     2.528368     4.737282     3.245799
 C     4.242546     4.916643    -0.817073
 H     4.648398     5.640531    -1.527767
 C     4.182098     5.234845     0.539891
 H     4.541415     6.206474     0.887787
 C     2.660704    -0.664632     1.493294
 C     4.014380    -0.570662     1.184770
 H     4.376193     0.268980     0.590422
 C     2.167359    -1.717432     2.262385
 H     1.104348    -1.739039     2.504810
 C     4.898719    -1.573727     1.597576
 C     6.345526    -1.497995     1.208318
 H     6.458779    -1.672266     0.126124
 H     6.767472    -0.504887     1.425169
 H     6.946949    -2.250149     1.737565
 C     3.048181    -2.705914     2.688015
 H     2.673990    -3.537721     3.289987
 C     4.399953    -2.642378     2.349616
 H     5.082096    -3.429645     2.680816
