  82
scf done:    -3423.190275
 C     3.357298    -2.142814     1.283332
 H     4.210736    -2.343152     0.626388
 H     3.604536    -1.514231     2.144893
 C     2.332034    -3.114409     1.394684
 H     2.413011    -4.045482     0.823878
 H     1.795555    -3.228846     2.342530
 H     1.332632    -0.952552     1.632595
Co     1.700106    -1.526678     0.328706
 O     0.823359     1.368630     1.123234
 C     3.466471     1.363537     0.563062
 C     1.521030     1.249426    -1.572465
 O    -1.179843    -0.566777    -0.508517
 C    -0.986863    -3.247897    -0.875894
 C    -1.355313    -2.147214     1.720745
 P    -0.370895    -1.886882     0.196830
 P     1.886175     0.561550     0.095346
 C     2.154395    -2.050767    -1.280943
 O     2.435513    -2.362326    -2.352867
 C     0.269596     2.594934     0.915915
 C    -0.881993     2.702829     0.135652
 H    -1.289928     1.794426    -0.305192
 C     0.814786     3.726075     1.526741
 H     1.699947     3.620647     2.156568
 C    -1.494199     3.940270    -0.075807
 C    -2.711665     4.035192    -0.949663
 H    -3.315674     3.117151    -0.894217
 H    -3.345478     4.889327    -0.670599
 H    -2.425122     4.170918    -2.006170
 C     0.206393     4.962799     1.322060
 H     0.625060     5.854048     1.796211
 C    -0.932049     5.073845     0.524915
 H    -1.397977     6.051454     0.375968
 H     3.347680     2.459043     0.509724
 H     3.624306     1.102165     1.622590
 C     4.642783     0.892015    -0.282739
 H     4.482071     1.179067    -1.336163
 H     4.666660    -0.209470    -0.270700
 C     5.974314     1.447534     0.197225
 H     5.982527     2.549092     0.172980
 H     6.181472     1.138148     1.234035
 H     6.806820     1.093091    -0.429335
 H     2.029396     0.555718    -2.264636
 H     0.445308     1.054518    -1.719063
 C     1.880648     2.691137    -1.915940
 H     2.977481     2.805547    -1.923502
 H     1.508243     3.378361    -1.141976
 C     1.313926     3.106668    -3.264922
 H     1.668476     2.446424    -4.072883
 H     0.213023     3.058067    -3.257047
 H     1.600856     4.137559    -3.522359
 C    -2.522222    -0.451304    -0.716270
 C    -3.333159     0.114558     0.269161
 H    -2.878385     0.412073     1.216131
 C    -3.069493    -0.807855    -1.952374
 H    -2.419548    -1.226955    -2.722150
 C    -4.698069     0.327343     0.044725
 C    -5.542720     0.960172     1.112455
 H    -5.437894     0.429598     2.071606
 H    -5.237287     2.004445     1.288147
 H    -6.606674     0.962138     0.838244
 C    -4.426820    -0.603420    -2.179456
 H    -4.859739    -0.879667    -3.143991
 C    -5.236882    -0.043631    -1.191417
 H    -6.301071     0.113625    -1.384339
 H    -2.090478    -3.253690    -0.860136
 H    -0.680243    -2.974132    -1.900234
 C    -0.430819    -4.621656    -0.522518
 H    -0.714301    -4.886690     0.510461
 H     0.669373    -4.574233    -0.526783
 C    -0.909266    -5.706183    -1.475016
 H    -2.007692    -5.792272    -1.467515
 H    -0.601720    -5.487765    -2.510087
 H    -0.494682    -6.689095    -1.204513
 H    -2.420591    -2.166857     1.431111
 H    -1.109348    -3.163271     2.074280
 C    -1.107027    -1.121826     2.820033
 H    -1.079380    -0.109135     2.384838
 H    -0.096069    -1.275140     3.228985
 C    -2.142814    -1.192899     3.930276
 H    -3.155735    -0.984757     3.547261
 H    -2.168192    -2.192368     4.393668
 H    -1.930056    -0.461585     4.724654
