 112
scf done:    -3591.887783
 C    -1.156326    -2.779411    -1.684958
 H    -1.909492    -3.416778    -1.208827
 H    -1.487506    -2.345368    -2.635177
 C     0.213487    -3.075461    -1.503687
 H     0.494810    -3.935486    -0.887250
 H     0.915647    -2.879973    -2.319085
 H    -0.031846    -0.677288    -1.695188
Co    -0.309776    -1.429116    -0.453027
 C    -2.126403     0.983848    -1.927852
 C    -3.667896    -1.037939    -0.599845
 C    -2.270511     1.155637     0.942101
 C     1.243543     1.024844     1.150186
 C     2.759838    -1.458649     1.152415
 C     2.530922     0.218350    -1.366887
 P     1.579629    -0.463580     0.091799
 P    -2.060087    -0.099033    -0.430796
 C    -0.504262    -2.209236     1.098573
 O    -0.558245    -2.693951     2.145516
 H    -3.107335     1.477167    -2.018133
 H    -2.032756     0.283231    -2.772231
 C    -1.007549     2.013221    -1.959639
 H    -1.180532     2.768682    -1.174207
 H    -0.063698     1.506782    -1.698172
 C    -0.814486     2.737373    -3.294114
 H    -1.789305     3.168574    -3.591285
 C     0.174600     3.884980    -3.122141
 H    -0.168411     4.603619    -2.361292
 H     0.325482     4.435741    -4.063432
 H     1.158085     3.504354    -2.798461
 C    -0.357877     1.791170    -4.399248
 H    -0.224457     2.327200    -5.351502
 H    -1.077100     0.977885    -4.575816
 H     0.607389     1.325538    -4.138507
 H    -3.496834    -1.537016    -1.572439
 C    -4.970891    -0.245081    -0.721064
 H    -4.877500     0.580140    -1.443229
 H    -5.211506     0.213353     0.252593
 C    -6.124811    -1.161187    -1.123243
 H    -7.058003    -0.579793    -1.204195
 H    -5.925210    -1.571673    -2.129667
 C    -6.296015    -2.307979    -0.133647
 H    -7.100563    -2.985358    -0.463381
 H    -6.617312    -1.896149     0.840580
 C    -4.993114    -3.076063     0.056550
 H    -4.734865    -3.597723    -0.882947
 H    -5.116166    -3.859508     0.821906
 C    -3.842260    -2.150062     0.437262
 H    -4.047257    -1.705549     1.425790
 H    -2.910334    -2.721000     0.541069
 H    -1.275248     1.632311     0.938047
 C    -2.439579     0.511523     2.319525
 H    -1.716255    -0.305819     2.461021
 H    -3.439897     0.049570     2.383688
 C    -2.299155     1.544008     3.433807
 H    -2.456314     1.066038     4.414292
 H    -1.262643     1.927005     3.438634
 C    -3.263192     2.709513     3.246768
 H    -3.106164     3.469361     4.029613
 H    -4.299052     2.344810     3.372333
 C    -3.121911     3.331933     1.862383
 H    -2.124392     3.799960     1.772408
 H    -3.857488     4.141893     1.728092
 C    -3.285142     2.287531     0.759943
 H    -4.309959     1.887868     0.798027
 H    -3.175388     2.765410    -0.225214
 H     0.402164     0.694796     1.778443
 H     0.811246     1.751580     0.443692
 C     2.274308     1.695108     2.048096
 H     2.642185     0.965517     2.787727
 H     3.156155     2.022962     1.474730
 C     1.717548     2.904111     2.809447
 H     0.837017     2.557392     3.382680
 C     2.749343     3.421135     3.805080
 H     3.063121     2.631963     4.506019
 H     2.353314     4.260461     4.397461
 H     3.651903     3.779942     3.282461
 C     1.256163     4.020397     1.878213
 H     0.884774     4.884358     2.450723
 H     0.443062     3.699403     1.209517
 H     2.088629     4.373446     1.246038
 H     2.271138    -1.382571     2.144949
 C     4.194612    -0.939669     1.293192
 H     4.215675     0.125660     1.553337
 H     4.706909    -1.032068     0.320831
 C     4.973458    -1.740707     2.333879
 H     6.002305    -1.352485     2.412423
 H     4.508171    -1.591043     3.325390
 C     4.985644    -3.227064     2.001131
 H     5.513756    -3.794759     2.784522
 H     5.555754    -3.381991     1.066893
 C     3.569151    -3.756610     1.816437
 H     3.034848    -3.716007     2.783054
 H     3.588896    -4.817774     1.519373
 C     2.785335    -2.946062     0.789893
 H     3.239863    -3.072243    -0.208110
 H     1.761809    -3.328736     0.704964
 H     1.697083     0.600368    -1.981316
 C     3.185181    -0.895076    -2.187348
 H     2.457890    -1.700813    -2.356535
 H     4.019879    -1.337309    -1.617183
 C     3.718402    -0.367114    -3.514603
 H     4.209500    -1.179651    -4.074240
 H     2.868409    -0.031265    -4.136073
 C     4.679185     0.796474    -3.304013
 H     5.031611     1.189011    -4.271700
 H     5.576708     0.433720    -2.770264
 C     4.024923     1.904354    -2.487960
 H     3.188548     2.333030    -3.069436
 H     4.734919     2.729466    -2.314321
 C     3.488845     1.391054    -1.152387
 H     4.335160     1.089041    -0.515154
 H     2.975095     2.212348    -0.630253
