  98
scf done:    -3881.010643
 C     1.541678    -0.309872     2.761871
 H     2.056796    -1.228286     3.061811
 H     2.203805     0.553450     2.649548
 C     0.181475    -0.133269     3.086249
 H    -0.350002    -0.913087     3.638543
 H    -0.218133     0.872278     3.248792
 H     0.493426     0.928290     1.025543
Co     0.408242    -0.530682     1.110281
 C     1.200021     1.246516    -1.591454
 O     3.209532     0.517760     0.145241
 O     2.151047    -1.251810    -1.414829
 C    -2.096631    -0.827858    -1.218461
 O    -2.838352    -0.431567     1.393034
 O    -1.688595     1.511626     0.237529
 P    -1.552780    -0.110338     0.405738
 P     1.753137    -0.019186    -0.380911
 C     0.524469    -2.279877     1.069569
 O     0.675940    -3.418194     0.994541
 C     0.801607     0.869442    -2.876026
 H     0.988202    -0.153784    -3.204248
 C     0.919035     2.559438    -1.160674
 O     1.351187     2.880799     0.073594
 C     0.810154     3.994322     0.730941
 H     1.117620     4.942746     0.257266
 H     1.200641     3.968733     1.756114
 H    -0.289619     3.935438     0.766207
 C     0.135943     1.756513    -3.720596
 H    -0.175142     1.433647    -4.715961
 C     0.244872     3.451474    -1.997915
 H     0.023583     4.464726    -1.661165
 C    -0.143875     3.043828    -3.273514
 H    -0.672539     3.748023    -3.920843
 C     4.075322     1.464846    -0.452284
 H     4.907589     0.920729    -0.936259
 H     3.546808     2.033128    -1.235440
 C     4.612210     2.394012     0.614697
 H     5.251520     3.149622     0.124033
 H     3.758054     2.936028     1.052304
 C     5.390964     1.677510     1.708459
 H     6.254813     1.156634     1.257466
 H     4.749907     0.888229     2.133390
 C     5.867757     2.609244     2.810046
 H     6.528369     3.398318     2.414745
 H     5.017528     3.109130     3.301810
 H     6.426472     2.066562     3.587559
 C     3.314294    -1.282365    -2.222633
 H     3.039193    -1.825132    -3.143516
 H     3.609235    -0.262868    -2.527330
 C     4.452074    -1.994372    -1.516147
 H     5.335966    -1.981392    -2.178932
 H     4.720612    -1.417278    -0.615278
 C     4.110790    -3.424122    -1.119846
 H     3.882804    -4.008574    -2.029501
 H     3.181607    -3.412508    -0.527902
 C     5.218477    -4.104401    -0.333206
 H     6.156532    -4.150909    -0.910555
 H     5.433418    -3.558660     0.599666
 H     4.945141    -5.134309    -0.058229
 C    -1.143900    -1.613537    -1.872572
 H    -0.173218    -1.762163    -1.396592
 C    -3.350011    -0.659632    -1.850499
 O    -4.286816     0.053313    -1.189245
 C    -5.545114     0.261353    -1.765355
 H    -5.472590     0.807151    -2.722149
 H    -6.114969     0.868949    -1.050867
 H    -6.079927    -0.689189    -1.935302
 C    -1.386360    -2.201058    -3.113063
 H    -0.613095    -2.807822    -3.588324
 C    -3.597913    -1.237035    -3.099976
 H    -4.562743    -1.101386    -3.588401
 C    -2.615169    -2.000946    -3.727963
 H    -2.827533    -2.446576    -4.703019
 C    -3.681523    -1.568041     1.340655
 H    -4.455959    -1.379165     2.102469
 H    -4.190636    -1.609894     0.365894
 C    -3.000315    -2.893125     1.622211
 H    -3.765895    -3.679547     1.491763
 H    -2.238600    -3.090065     0.847383
 C    -2.377503    -2.999571     3.003898
 H    -3.142865    -2.757970     3.763216
 H    -1.608026    -2.218463     3.090728
 C    -1.774435    -4.364252     3.291441
 H    -2.534997    -5.160229     3.231804
 H    -0.980185    -4.606619     2.569227
 H    -1.331086    -4.403760     4.298200
 C    -2.746257     2.343366    -0.200201
 H    -2.274962     3.328806    -0.352421
 H    -3.118337     2.010627    -1.179403
 C    -3.872361     2.458287     0.808705
 H    -4.595850     3.198421     0.420004
 H    -4.397392     1.493214     0.866745
 C    -3.404200     2.861336     2.199042
 H    -2.889892     3.838617     2.146528
 H    -2.648645     2.132780     2.532644
 C    -4.535365     2.925083     3.211131
 H    -5.307144     3.654162     2.913720
 H    -5.027979     1.944237     3.309059
 H    -4.172357     3.213388     4.209377
