 100
scf done:    -3734.535726
 C     1.168580    -1.331110     2.835572
 H     1.819896    -2.209952     2.788996
 H     1.653387    -0.445002     3.258765
 C    -0.221566    -1.493698     2.979293
 H    -0.626705    -2.505863     3.073121
 H    -0.821467    -0.733987     3.489326
 H     0.162964     0.437482     1.548674
Co     0.229596    -0.955780     1.076726
 C     2.666295     1.349869     1.121455
 C     3.477626    -1.354115     0.479559
 C     2.282374     0.358338    -1.526687
 C    -2.172751    -1.105302    -1.351147
 C    -3.231805    -0.795805     1.205353
 C    -1.775919     1.490466    -0.023142
 P    -1.695950    -0.320610     0.268119
 P     2.086595    -0.168689     0.238533
 C     0.226453    -2.583947     0.424309
 O     0.170834    -3.658857     0.015242
 H     3.758239     1.448951     1.035905
 H     2.434194     1.179579     2.182265
 C     1.976827     2.610637     0.621159
 H     2.276674     2.794951    -0.423379
 H     0.883719     2.456827     0.595782
 C     2.294279     3.854421     1.457184
 H     3.391995     3.891297     1.595910
 C     1.875531     5.117744     0.714043
 H     2.389397     5.200890    -0.256391
 H     2.104360     6.023352     1.297530
 H     0.792399     5.106944     0.514332
 C     1.647571     3.798476     2.836996
 H     1.923340     4.675077     3.443516
 H     1.944589     2.901195     3.400986
 H     0.549519     3.784366     2.746297
 C     4.262008    -1.234448     1.636287
 H     4.082540    -0.411266     2.329259
 C     3.707781    -2.437956    -0.397248
 C     2.938572    -2.648861    -1.669903
 H     3.335326    -2.020743    -2.483293
 H     1.877327    -2.393199    -1.566401
 H     3.003928    -3.698720    -1.987649
 C     5.268434    -2.147907     1.933512
 H     5.861555    -2.028076     2.843102
 C     4.726027    -3.345010    -0.077808
 H     4.905893    -4.184230    -0.755536
 C     5.504293    -3.211550     1.067674
 H     6.288359    -3.940816     1.284705
 C     1.120844     0.263810    -2.292642
 H     0.237538    -0.119202    -1.785174
 C     3.467723     0.832892    -2.132870
 C     4.768438     1.006816    -1.403497
 H     4.963764     0.188784    -0.697564
 H     4.772734     1.947727    -0.829003
 H     5.605579     1.057623    -2.113378
 C     1.083176     0.615999    -3.637336
 H     0.154908     0.525016    -4.207318
 C     3.418183     1.176040    -3.490812
 H     4.333311     1.533767    -3.971150
 C     2.249166     1.075133    -4.241573
 H     2.255374     1.352679    -5.298459
 H    -2.078463    -2.182384    -1.130049
 H    -1.367475    -0.895675    -2.068625
 C    -3.535938    -0.823522    -1.959829
 H    -4.316916    -1.097766    -1.233026
 H    -3.658718     0.256931    -2.149929
 C    -3.795985    -1.574537    -3.269702
 H    -3.645483    -2.652351    -3.070795
 C    -5.241998    -1.375357    -3.709044
 H    -5.946941    -1.702805    -2.929244
 H    -5.466470    -1.940339    -4.627030
 H    -5.444879    -0.310946    -3.915221
 C    -2.831252    -1.162419    -4.377451
 H    -3.057044    -1.689441    -5.317209
 H    -1.783341    -1.384927    -4.124919
 H    -2.908542    -0.079779    -4.578397
 C    -3.131546    -2.065340     1.792129
 H    -2.178923    -2.590743     1.723113
 C    -4.470697    -0.112422     1.267711
 C    -4.757871     1.225540     0.645443
 H    -4.302755     1.342268    -0.344038
 H    -4.376353     2.053614     1.262089
 H    -5.843277     1.363652     0.543549
 C    -4.197477    -2.665024     2.452831
 H    -4.078438    -3.657804     2.892538
 C    -5.525166    -0.727955     1.959642
 H    -6.481151    -0.200121     2.017549
 C    -5.404203    -1.980561     2.550453
 H    -6.255289    -2.422218     3.074399
 C    -1.680145     1.980776    -1.331350
 H    -1.629044     1.286917    -2.170346
 C    -1.820157     2.407706     1.053528
 C    -1.849153     1.976334     2.489276
 H    -2.572138     1.169072     2.675307
 H    -2.092480     2.821452     3.147666
 H    -0.864383     1.576783     2.781650
 C    -1.649149     3.346631    -1.599148
 H    -1.567827     3.696359    -2.630655
 C    -1.813370     3.775581     0.759775
 H    -1.867977     4.486681     1.588815
 C    -1.729848     4.251528    -0.546473
 H    -1.720863     5.327172    -0.737449
