  98
scf done:    -4429.201079
 C     0.240892     0.075078    -3.582479
 H     0.214976     1.037043    -4.105545
 H     1.183816    -0.468765    -3.681837
 C    -0.961547    -0.617942    -3.349371
 H    -1.913819    -0.193644    -3.680638
 H    -0.957094    -1.710883    -3.298057
 H     0.408859    -1.083020    -1.419433
Co    -0.271233     0.217049    -1.622914
 O     2.756111    -0.314500    -1.786636
 C     2.528434     2.211625    -0.846010
 C     1.914628    -0.023036     0.893732
 O    -1.290215    -0.282565     1.453559
 C    -3.382096    -0.397791    -0.254903
 C    -1.367386    -2.482145     0.036111
 P    -1.545692    -0.649276    -0.182410
 P     1.672587     0.557072    -0.856611
 C    -1.130855     1.733959    -1.801039
 O    -1.767888     2.677976    -1.961013
 C     4.028060    -0.776392    -1.638339
 C     4.220615    -2.142146    -1.864262
 H     3.343096    -2.747807    -2.102799
 C     5.121378     0.042919    -1.354040
 H     4.989775     1.113421    -1.205701
 C     5.488474    -2.718881    -1.775116
 C     5.684070    -4.183625    -2.040760
 H     6.483912    -4.602894    -1.412740
 H     4.763944    -4.755977    -1.854936
 H     5.971150    -4.356654    -3.091362
 C     6.386090    -0.531151    -1.249661
 H     7.240673     0.103654    -1.003582
 C     6.574035    -1.895590    -1.451405
 H     7.573905    -2.327193    -1.359853
 H     3.467310     2.115046    -0.281806
 H     2.786656     2.387011    -1.901427
 C     1.691747     3.330745    -0.309605
 C     0.866590     4.073168    -1.162569
 H     0.860453     3.847915    -2.231225
 C     1.686874     3.654606     1.053836
 H     2.326519     3.105713     1.746621
 C     0.040605     5.082329    -0.677363
 H    -0.622342     5.643659    -1.337282
 C     0.878060     4.667914     1.557638
 H     0.865130     4.914356     2.620377
 C     0.053862     5.361192     0.681864
 F    -0.760146     6.302721     1.165362
 H     1.387703     0.743270     1.486738
 H     1.297579    -0.927524     0.977989
 C     3.298176    -0.283935     1.405997
 C     3.832949    -1.577714     1.334084
 H     3.221570    -2.387310     0.929275
 C     4.102594     0.724874     1.947760
 H     3.708183     1.736015     2.059189
 C     5.131994    -1.852053     1.741555
 H     5.555420    -2.854486     1.665563
 C     5.408631     0.471425     2.361224
 H     6.039280     1.257911     2.779203
 C     5.912153    -0.815466     2.238892
 F     7.165982    -1.065596     2.614224
 C    -1.858545     0.791165     2.077958
 C    -2.737375     0.535876     3.132750
 H    -2.939130    -0.505072     3.396248
 C    -1.576588     2.102242     1.690769
 H    -0.881223     2.292944     0.872487
 C    -3.349981     1.583979     3.823520
 C    -4.266703     1.305356     4.979158
 H    -4.707090     0.300333     4.912075
 H    -3.719937     1.361917     5.935290
 H    -5.085313     2.038138     5.029237
 C    -2.200162     3.150178     2.368037
 H    -1.996565     4.179978     2.067999
 C    -3.075539     2.897764     3.420600
 H    -3.556412     3.732255     3.937614
 H    -3.851095    -1.124175     0.428438
 H    -3.556110     0.601723     0.172228
 C    -3.947583    -0.470925    -1.640898
 C    -4.300234     0.697420    -2.326831
 H    -4.182762     1.665347    -1.835657
 C    -4.112503    -1.694390    -2.302027
 H    -3.856572    -2.624055    -1.791374
 C    -4.783020     0.654930    -3.631903
 H    -5.053897     1.565008    -4.169885
 C    -4.595792    -1.758547    -3.605181
 H    -4.722771    -2.710461    -4.123530
 C    -4.921153    -0.576643    -4.258771
 F    -5.382352    -0.627404    -5.507327
 H    -1.592351    -2.915228    -0.950719
 H    -0.287456    -2.628901     0.191309
 C    -2.166398    -3.111683     1.133873
 C    -1.741702    -3.013116     2.467147
 H    -0.812962    -2.486964     2.693672
 C    -3.362845    -3.791565     0.875743
 H    -3.709935    -3.907583    -0.153614
 C    -2.488350    -3.558508     3.506268
 H    -2.160211    -3.486025     4.544854
 C    -4.126043    -4.341710     1.903513
 H    -5.058172    -4.872754     1.703370
 C    -3.679068    -4.212891     3.211279
 F    -4.399877    -4.733631     4.202772
