 112
scf done:    -3891.691177
 C    -0.223317     1.257758    -3.167270
 H    -0.669275     0.742820    -4.025759
 H    -0.741565     2.182768    -2.899628
 C     1.166338     1.144790    -2.928351
 H     1.778480     0.535451    -3.603376
 H     1.712000     1.980207    -2.479696
 H     0.014904     1.257796    -0.704027
Co     0.122129     0.056884    -1.584195
 C    -2.961413     1.329990    -1.111820
 C    -2.851363    -1.510411    -1.377036
 C    -1.937602    -0.264038     1.150124
 C     1.406117    -2.068804     0.791036
 C     3.252391    -0.959607    -1.169692
 C     2.251606     0.508781     1.195711
 P     1.697257    -0.545733    -0.228286
 P    -1.833343    -0.074087    -0.721669
 C     0.096453    -1.403436    -2.537766
 O     0.052573    -2.350456    -3.192573
 H    -3.936970     1.139303    -0.637128
 H    -3.103235     1.259176    -2.203187
 C    -2.467741     2.714269    -0.722929
 H    -2.419811     2.775262     0.372324
 H    -1.436900     2.863022    -1.085534
 C    -3.356495     3.857267    -1.220395
 H    -4.395167     3.624139    -0.918412
 C    -2.955714     5.160083    -0.537818
 H    -3.034705     5.075917     0.557350
 H    -3.591325     5.999226    -0.861091
 H    -1.911310     5.420952    -0.778463
 C    -3.324726     4.005077    -2.737346
 H    -3.995694     4.810919    -3.073392
 H    -3.634486     3.083763    -3.253697
 H    -2.307268     4.252463    -3.083773
 H    -2.977388    -1.256428    -2.442164
 H    -2.181571    -2.380528    -1.358095
 C    -4.168076    -1.816970    -0.737367
 C    -5.304325    -1.073291    -1.084893
 H    -5.219943    -0.314744    -1.866222
 C    -4.294445    -2.840931     0.228026
 C    -3.155100    -3.765059     0.555020
 H    -2.242891    -3.236675     0.870723
 H    -2.877497    -4.371080    -0.322906
 H    -3.430732    -4.458504     1.361045
 C    -6.530401    -1.277545    -0.459969
 H    -7.395975    -0.675646    -0.745928
 C    -5.533708    -3.030581     0.850937
 H    -5.628472    -3.816750     1.604900
 C    -6.642763    -2.252715     0.528139
 H    -7.595481    -2.421557     1.035197
 H    -2.250528    -1.302345     1.327021
 H    -0.901362    -0.181023     1.497649
 C    -2.834099     0.661574     1.923400
 C    -4.206638     0.397620     2.000275
 H    -4.604205    -0.494648     1.514190
 C    -2.319736     1.803350     2.575315
 C    -0.854623     2.131637     2.548041
 H    -0.451910     2.144481     1.523158
 H    -0.268330     1.393902     3.121273
 H    -0.662048     3.117067     2.993185
 C    -5.073556     1.248324     2.680099
 H    -6.140723     1.017206     2.715729
 C    -3.204286     2.645641     3.257871
 H    -2.804755     3.532257     3.758045
 C    -4.571218     2.383769     3.309367
 H    -5.238397     3.063150     3.845175
 H     0.636756    -1.790904     1.531708
 H     2.323509    -2.269076     1.365808
 C     0.954134    -3.292807     0.015416
 H     0.001061    -3.058975    -0.484504
 H     1.666400    -3.516795    -0.799752
 C     0.769188    -4.559412     0.855956
 H     0.035034    -4.326123     1.650987
 C     0.193974    -5.678102    -0.005199
 H    -0.746887    -5.373463    -0.487660
 H    -0.007041    -6.582583     0.589345
 H     0.899474    -5.954688    -0.806069
 C     2.060819    -5.011714     1.529099
 H     1.902582    -5.934288     2.108487
 H     2.460963    -4.255574     2.221008
 H     2.838081    -5.224972     0.775495
 H     3.007697    -1.911907    -1.669968
 H     3.285949    -0.208785    -1.966716
 C     4.565074    -1.051859    -0.453841
 C     4.845137    -2.148810     0.372650
 H     4.104514    -2.946065     0.467889
 C     5.555125    -0.058925    -0.629874
 C     5.349868     1.106986    -1.553071
 H     4.459204     1.694293    -1.285720
 H     5.222311     0.774042    -2.596177
 H     6.213811     1.783984    -1.522325
 C     6.056866    -2.264606     1.049360
 H     6.246066    -3.131719     1.686543
 C     6.769057    -0.194634     0.053180
 H     7.534049     0.574664    -0.082600
 C     7.024794    -1.276170     0.892338
 H     7.982262    -1.350425     1.413290
 H     1.326633     0.685482     1.768352
 H     2.883566    -0.137557     1.818265
 C     2.949953     1.813207     0.933473
 C     2.388284     2.758649     0.067654
 H     1.439280     2.516893    -0.415619
 C     4.163686     2.115000     1.588258
 C     4.778012     1.180655     2.590863
 H     4.968920     0.183572     2.166949
 H     4.123241     1.047636     3.467806
 H     5.738793     1.573311     2.950281
 C     3.022511     3.969823    -0.195865
 H     2.565058     4.685217    -0.883404
 C     4.790445     3.334054     1.305361
 H     5.736816     3.564476     1.802505
 C     4.238929     4.255018     0.418192
 H     4.755153     5.196716     0.216539
