  90
scf done:    -3803.478041
 C    -1.979059    -0.260371    -2.985435
 H    -2.491159    -1.133707    -3.403068
 H    -2.621597     0.625068    -2.923993
 C    -0.590996    -0.119460    -3.188491
 H    -0.044309    -0.882316    -3.751318
 H    -0.146276     0.879878    -3.253924
 H    -0.861111     0.788239    -0.985694
Co    -0.970943    -0.653923    -1.273089
 C    -3.373085     1.425269     0.037768
 C    -3.965489    -1.268882     0.262877
 C    -1.867766    -0.292368     1.901658
 C     1.388183    -1.073817     1.125377
 C     2.348753    -1.465028    -1.558100
 C     1.750714     1.195569    -0.648352
 P     1.077324    -0.512613    -0.631753
 P    -2.460712    -0.206125     0.168044
 C    -1.117879    -2.395914    -1.206257
 O    -1.230806    -3.531670    -1.040883
 H    -3.988049     1.272173    -0.863673
 H    -4.069138     1.467341     0.889223
 C    -2.596607     2.702666    -0.079765
 C    -2.589638     3.635878     0.966147
 H    -3.163858     3.433438     1.874532
 C    -1.889292     3.011278    -1.246357
 H    -1.909399     2.311189    -2.082831
 C    -1.876772     4.825991     0.846690
 H    -1.888155     5.549861     1.665500
 C    -1.160140     4.196652    -1.381085
 C    -0.374471     4.453652    -2.631830
 H     0.541373     3.840678    -2.637070
 H    -0.952112     4.189216    -3.530274
 H    -0.070737     5.506899    -2.712720
 C    -1.161156     5.102810    -0.316582
 H    -0.601626     6.038099    -0.404364
 C    -4.340342    -2.018909    -0.855195
 C    -4.783944    -1.289938     1.400657
 C    -6.311113    -2.803054     0.299440
 C    -5.947349    -2.054403     1.419508
 C    -5.507329    -2.781849    -0.837897
 H    -3.706437    -1.998599    -1.743330
 H    -5.785291    -3.366750    -1.717879
 H    -7.222691    -3.405402     0.316115
 H    -6.573415    -2.068202     2.315086
 H    -4.501538    -0.714146     2.286271
 C    -1.409138     0.828878     2.602184
 C    -1.714852    -1.560175     2.484001
 C    -0.658004    -0.576703     4.421949
 C    -1.121995    -1.699757     3.734266
 C    -0.806747     0.685956     3.853672
 H    -1.505593     1.823361     2.165150
 H    -0.448154     1.571994     4.383410
 H    -0.180036    -0.688599     5.397752
 H    -1.008701    -2.694751     4.171287
 H    -2.054547    -2.448021     1.943230
 H     0.778676    -0.411460     1.756233
 H     0.910208    -2.063533     1.168624
 C     2.802623    -1.139531     1.600117
 C     3.511940    -2.345656     1.549660
 H     3.011115    -3.249209     1.192804
 C     3.466995     0.007092     2.050205
 H     2.922697     0.953102     2.098130
 C     4.852143    -2.390480     1.921254
 H     5.398430    -3.335501     1.869507
 C     4.815804    -0.017148     2.417644
 C     5.492098     1.232866     2.902742
 H     5.122376     2.120230     2.367749
 H     5.299484     1.394942     3.976628
 H     6.582284     1.180219     2.769830
 C     5.504473    -1.233483     2.342229
 H     6.561279    -1.273220     2.620750
 C     1.943846    -2.463546    -2.449808
 C     3.723462    -1.256972    -1.360117
 C     4.243500    -3.030558    -2.916802
 C     4.660823    -2.032342    -2.036779
 C     2.882633    -3.245833    -3.121010
 H     0.879299    -2.627348    -2.620480
 H     2.545309    -4.022849    -3.811019
 H     4.981222    -3.639665    -3.445131
 H     5.725854    -1.858640    -1.865876
 H     4.068258    -0.485334    -0.669578
 C     1.325358     2.093515     0.339755
 C     2.592184     1.663987    -1.662750
 C     2.636753     3.861298    -0.651693
 C     3.035311     2.987296    -1.660504
 C     1.770209     3.411253     0.344986
 H     0.628330     1.762732     1.112786
 H     1.424910     4.093264     1.124705
 H     2.986812     4.896307    -0.650018
 H     3.698237     3.334503    -2.456880
 H     2.912677     0.990497    -2.459922
