  82
scf done:    -3423.173298
 C     1.673387     2.733546    -0.546869
 H     2.153695     3.226583     0.305183
 H     2.370980     2.260700    -1.245640
 C     0.437258     3.218048    -1.017491
 H    -0.024933     4.073902    -0.517476
 H     0.196365     3.147785    -2.081439
 H     0.455769     0.767407    -1.283862
Co     0.181591     1.468426    -0.018032
 O     2.516177    -0.461564    -0.753666
 C     2.956849     0.586743     1.767093
 C     1.121552    -1.643921     1.282016
 O    -2.202699    -0.553092     0.280497
 C    -3.215007     1.952724    -0.223350
 C    -2.052427     0.258557    -2.327836
 P    -1.751839     0.837222    -0.589872
 P     1.609065     0.008475     0.593782
 C    -0.383732     2.073435     1.525170
 O    -0.862143     2.411730     2.517936
 C     3.761475    -1.009101    -0.765641
 C     4.865061    -0.174243    -0.948905
 H     4.690726     0.898503    -1.064551
 C     3.943091    -2.391586    -0.655670
 H     3.076125    -3.042295    -0.538096
 C     6.163965    -0.691658    -0.987071
 C     7.336584     0.221518    -1.199653
 H     7.251732     1.133994    -0.590573
 H     8.284193    -0.273536    -0.945174
 H     7.400033     0.540248    -2.253169
 C     5.233173    -2.912242    -0.693787
 H     5.380848    -3.991018    -0.600744
 C     6.335916    -2.073227    -0.847518
 H     7.343576    -2.495950    -0.869059
 H     3.620101     1.134271     1.074742
 C     2.449482     1.591028     2.797166
 H     3.290767     1.932708     3.421069
 H     2.000719     2.473359     2.325217
 H     1.697624     1.154578     3.471501
 C     3.779479    -0.504837     2.447273
 H     4.192768    -1.238118     1.742682
 H     4.629102    -0.043566     2.976012
 H     3.186317    -1.046007     3.200585
 H     2.063140    -2.150712     1.550218
 C     0.279932    -1.441655     2.538318
 H    -0.010041    -2.417122     2.960261
 H     0.815010    -0.887720     3.323837
 H    -0.642755    -0.893962     2.293982
 C     0.384109    -2.488326     0.251784
 H     0.934027    -2.557642    -0.697326
 H     0.235235    -3.508492     0.641054
 H    -0.602660    -2.054944     0.046436
 C    -3.443534    -1.060507     0.509246
 C    -4.031756    -1.944527    -0.397705
 H    -3.489758    -2.204857    -1.309099
 C    -4.101480    -0.736865     1.698997
 H    -3.612272    -0.069604     2.411470
 C    -5.296413    -2.489565    -0.151107
 C    -5.906691    -3.458369    -1.122376
 H    -5.680122    -3.183893    -2.163190
 H    -5.512415    -4.475520    -0.961035
 H    -6.999004    -3.507356    -1.010029
 C    -5.361568    -1.272254     1.946828
 H    -5.884933    -1.014468     2.870817
 C    -5.960017    -2.133691     1.028596
 H    -6.952295    -2.543682     1.233150
 H    -3.371047     1.749212     0.851295
 C    -2.874590     3.433791    -0.356225
 H    -3.751864     4.036156    -0.070936
 H    -2.039639     3.724775     0.291130
 H    -2.606665     3.706754    -1.387898
 C    -4.511409     1.629668    -0.961779
 H    -4.813114     0.578288    -0.868356
 H    -5.328182     2.242016    -0.547295
 H    -4.436704     1.873854    -2.032700
 H    -3.116394    -0.028569    -2.361987
 C    -1.809041     1.391353    -3.318540
 H    -2.063011     1.060729    -4.338120
 H    -2.406310     2.288326    -3.100152
 H    -0.748119     1.681594    -3.313266
 C    -1.206108    -0.957220    -2.677760
 H    -1.409165    -1.810426    -2.016726
 H    -1.412321    -1.270201    -3.713829
 H    -0.132398    -0.725321    -2.598059
