  90
scf done:    -6013.899129
 C    -0.708771    -0.723474    -3.751513
 H    -1.425615    -1.460334    -4.126536
 H    -1.083097     0.304013    -3.745489
 C     0.673020    -0.974180    -3.835250
 H     1.034676    -1.908900    -4.275331
 H     1.381215    -0.143271    -3.907977
 H     0.246673     0.245067    -1.758041
Co     0.022628    -1.202786    -1.928254
 C    -1.028544     0.667676     0.666783
 O    -2.806502     0.046493    -1.322030
 O    -2.097844    -1.785812     0.342443
 C     2.669707    -2.899267    -0.693351
 O     3.184111    -0.529641    -1.630827
 O     1.846181    -0.589113     0.559481
 P     1.858690    -1.289195    -0.946395
 P    -1.434249    -0.567304    -0.613092
 C    -0.384108    -2.916183    -1.978444
 O    -0.673472    -4.024744    -1.976698
 C    -0.783906     0.267482     1.980403
 H    -0.841459    -0.794361     2.221330
 C    -0.852263     2.022106     0.323075
 O    -1.010032     2.331483    -0.977310
 C    -1.101072     3.677916    -1.362405
 H    -1.925574     4.188177    -0.837175
 H    -1.308819     3.678830    -2.438970
 H    -0.157405     4.219039    -1.178678
 C    -0.448241     1.193174     2.965319
 H    -0.260366     0.862760     3.988378
 C    -0.535102     2.959062     1.311513
 H    -0.429778     4.014355     1.060151
 C    -0.345699     2.539614     2.627437
 H    -0.093997     3.279376     3.391020
 C    -3.597751     1.110129    -1.009488
 C    -4.033437     1.394355     0.285558
 H    -3.746113     0.754715     1.119128
 C    -4.002193     1.920306    -2.073260
 H    -3.654675     1.671298    -3.077535
 C    -4.848160     2.500827     0.515414
 H    -5.190393     2.729767     1.525669
 C    -4.822458     3.019108    -1.848444
 H    -5.142128     3.655356    -2.675347
 C    -5.235534     3.312095    -0.547967
Cl    -6.244295     4.692332    -0.257534
 C    -3.379104    -1.838917     0.809421
 C    -4.444060    -2.040349    -0.072894
 H    -4.240539    -2.129906    -1.140159
 C    -3.623822    -1.735524     2.180273
 H    -2.790144    -1.590369     2.867500
 C    -5.746507    -2.102839     0.408364
 H    -6.584094    -2.246554    -0.275779
 C    -4.926475    -1.808052     2.667060
 H    -5.125458    -1.725376     3.736663
 C    -5.984617    -1.980826     1.777320
Cl    -7.607839    -2.052093     2.377093
 C     3.860392    -3.262807    -1.323463
 H     4.375467    -2.520698    -1.935521
 C     1.987099    -3.845432     0.098378
 O     0.856917    -3.408255     0.680259
 C    -0.015325    -4.322810     1.292283
 H    -0.292437    -5.132824     0.597537
 H    -0.916599    -3.754513     1.550235
 H     0.427050    -4.754547     2.206292
 C     4.379584    -4.547927    -1.172972
 H     5.311853    -4.823787    -1.669596
 C     2.503511    -5.135110     0.247110
 H     1.983351    -5.873182     0.857985
 C     3.697275    -5.475002    -0.389264
 H     4.095134    -6.485299    -0.266652
 C     3.513430     0.783719    -1.456578
 C     4.835927     1.065874    -1.107097
 H     5.537885     0.238265    -0.995189
 C     2.590047     1.821135    -1.595089
 H     1.557570     1.600194    -1.869571
 C     5.230128     2.372642    -0.851224
 H     6.253671     2.595592    -0.546656
 C     2.983254     3.131435    -1.335206
 H     2.269009     3.951594    -1.423755
 C     4.294258     3.401994    -0.951836
Cl     4.763304     5.030677    -0.583986
 C     2.923261    -0.163836     1.286250
 C     2.912369     1.166521     1.709405
 H     2.057280     1.790601     1.448747
 C     3.997130    -0.994305     1.605803
 H     3.995536    -2.037622     1.290934
 C     3.991870     1.685234     2.411224
 H     4.004257     2.731819     2.719031
 C     5.083514    -0.474916     2.307417
 H     5.937350    -1.108764     2.552217
 C     5.082972     0.863033     2.694550
Cl     6.453459     1.515955     3.533607
