  98
scf done:    -4032.439692
 C    -1.146480     3.396626    -0.042176
 H    -1.873211     3.817555    -0.744750
 H    -1.430729     3.523042     1.007828
 C     0.220689     3.365537    -0.396301
 H     0.525483     3.741830    -1.379835
 H     0.989737     3.468378     0.373159
 H    -0.371526     1.379859     0.985593
Co    -0.579248     1.508143    -0.474402
 O    -1.689348    -1.084023     1.116240
 C    -3.536967     0.871199     1.128276
 C    -2.917986    -0.838145    -1.158131
 O     0.881144    -1.223670    -0.882429
 C     2.292925     0.865897    -2.057019
 C     2.375437     0.233938     0.841570
 P     1.223962     0.413504    -0.593400
 P    -2.122681     0.211753     0.133182
 C    -0.950272     1.509815    -2.186139
 O    -1.205923     1.489291    -3.307274
 C    -0.787151    -1.125843     2.120750
 C     0.028641    -2.260930     2.188237
 H    -0.083777    -3.017594     1.409361
 C    -0.677239    -0.129586     3.092729
 H    -1.329001     0.744026     3.060993
 C     0.971087    -2.410900     3.205600
 C     1.841791    -3.632542     3.276491
 H     1.691154    -4.170592     4.225698
 H     1.625805    -4.330003     2.455343
 H     2.909757    -3.365879     3.225596
 C     0.276039    -0.268645     4.101730
 H     0.376919     0.516757     4.854330
 C     1.097417    -1.389304     4.159082
 H     1.840920    -1.479364     4.954927
 H    -3.101138     1.630716     1.799065
 H    -3.899195     0.039184     1.750369
 C    -4.675026     1.453560     0.335820
 C    -5.994483     1.180849     0.715476
 H    -6.179785     0.541360     1.582293
 C    -4.459215     2.253720    -0.792484
 H    -3.434978     2.479648    -1.094211
 C    -7.068147     1.687781    -0.011363
 H    -8.089712     1.457849     0.301071
 C    -5.531946     2.751737    -1.529870
 H    -5.340078     3.365735    -2.413203
 C    -6.841201     2.470783    -1.142719
 H    -7.682361     2.861802    -1.720057
 H    -2.072617    -1.444851    -1.523447
 H    -3.195250    -0.154153    -1.973482
 C    -4.087168    -1.686465    -0.756874
 C    -5.376511    -1.355020    -1.190473
 H    -5.520672    -0.472292    -1.819107
 C    -3.925251    -2.819580     0.052613
 H    -2.925622    -3.089332     0.396359
 C    -6.476257    -2.125718    -0.820256
 H    -7.473221    -1.845020    -1.168495
 C    -5.024611    -3.588488     0.426042
 H    -4.879036    -4.467768     1.058578
 C    -6.305138    -3.243985    -0.006863
 H    -7.166379    -3.849677     0.285562
 C     1.769628    -2.178558    -1.272890
 C     2.579265    -2.830569    -0.341325
 H     2.488612    -2.562083     0.711255
 C     1.835806    -2.530324    -2.624786
 H     1.169834    -2.037316    -3.335668
 C     3.497753    -3.805932    -0.746202
 C     4.363719    -4.491145     0.270994
 H     4.853919    -3.762070     0.934252
 H     3.766738    -5.160010     0.911981
 H     5.145252    -5.097402    -0.207430
 C     2.744791    -3.501554    -3.032850
 H     2.807175    -3.772517    -4.089407
 C     3.578065    -4.126984    -2.105697
 H     4.294363    -4.881685    -2.439758
 H     1.900831     1.841961    -2.372380
 H     2.001237     0.146576    -2.839312
 C     3.784027     0.945526    -1.930534
 C     4.588823    -0.197779    -1.830516
 H     4.132126    -1.188885    -1.856759
 C     4.407517     2.199464    -1.918596
 H     3.793220     3.100825    -1.991515
 C     5.971818    -0.084593    -1.702466
 H     6.579546    -0.989389    -1.623749
 C     5.790353     2.314470    -1.801614
 H     6.252437     3.304500    -1.792663
 C     6.579137     1.171134    -1.684982
 H     7.663927     1.257089    -1.587351
 H     3.215683    -0.394122     0.513542
 H     1.784289    -0.341927     1.570098
 C     2.899217     1.489694     1.475980
 C     2.082271     2.285488     2.289716
 H     1.043433     1.990207     2.445393
 C     4.235410     1.866983     1.303363
 H     4.894146     1.246690     0.691765
 C     2.579838     3.439205     2.889731
 H     1.923958     4.048510     3.516528
 C     4.735861     3.020520     1.903843
 H     5.782052     3.296346     1.750242
 C     3.908700     3.815475     2.694499
 H     4.299376     4.721138     3.164728
