 106
scf done:    -3737.449940
 C     0.924186    -3.788646     1.224053
 H     1.479455    -4.437143     0.537423
 H     1.468149    -3.558548     2.145723
 C    -0.490692    -3.856393     1.242093
 H    -0.997556    -4.555510     0.567902
 H    -1.031210    -3.678522     2.177144
 H     0.164310    -1.598586     1.736163
Co     0.136040    -2.151293     0.368195
 O     1.372503     0.547206     1.358914
 C     3.363835    -1.206727     0.903028
 C     2.035557     0.070712    -1.307634
 O    -1.256712     0.447028    -0.704009
 C    -3.021024    -1.608287    -0.814892
 C    -2.464413    -0.304947     1.647675
 P    -1.606611    -0.972536     0.170221
 P     1.697044    -0.730381     0.311143
 C     0.186333    -2.719593    -1.289322
 O     0.216127    -3.063132    -2.387244
 C     1.711656     1.855225     1.211898
 C     0.972113     2.671199     0.353531
 H     0.145555     2.222312    -0.196542
 C     2.760570     2.390177     1.962322
 H     3.309973     1.743214     2.648611
 C     1.291998     4.021341     0.194354
 C     0.519358     4.869398    -0.774243
 H    -0.495729     4.475609    -0.930546
 H     0.443211     5.911175    -0.429796
 H     1.016579     4.887038    -1.758892
 C     3.077661     3.738893     1.814108
 H     3.898261     4.166302     2.395777
 C     2.359751     4.547002     0.933780
 H     2.623019     5.602598     0.827044
 H     3.219555    -1.572557     1.933079
 H     3.987709    -0.300097     0.957957
 C     3.995815    -2.285046     0.033633
 H     3.252336    -3.082028    -0.131504
 H     4.228393    -1.872746    -0.965120
 C     5.268000    -2.907372     0.613184
 H     5.007982    -3.316885     1.607634
 C     5.734570    -4.064514    -0.262008
 H     4.946816    -4.825493    -0.374860
 H     6.622898    -4.557721     0.162130
 H     6.001509    -3.709389    -1.271565
 C     6.379466    -1.881207     0.802235
 H     7.288937    -2.350484     1.208343
 H     6.087352    -1.076110     1.493149
 H     6.647701    -1.414570    -0.160986
 H     1.097064     0.595365    -1.552227
 H     2.077047    -0.775791    -2.013260
 C     3.247624     0.983817    -1.464436
 H     3.401505     1.580384    -0.553719
 H     4.162483     0.376411    -1.585475
 C     3.128401     1.952396    -2.643508
 H     2.182984     2.509651    -2.501564
 C     4.268198     2.962900    -2.620114
 H     4.280475     3.523239    -1.671973
 H     4.178898     3.689334    -3.443067
 H     5.243996     2.459596    -2.726489
 C     3.051923     1.227437    -3.981936
 H     2.949283     1.939360    -4.815662
 H     2.195142     0.538248    -4.029175
 H     3.966887     0.637033    -4.159620
 C    -2.162146     1.337547    -1.200497
 C    -2.644280     2.376366    -0.403583
 H    -2.318048     2.440204     0.635452
 C    -2.540835     1.251080    -2.543628
 H    -2.139010     0.442325    -3.156743
 C    -3.517567     3.338238    -0.926050
 C    -4.002310     4.460456    -0.054455
 H    -4.395939     4.082727     0.901653
 H    -3.179706     5.153184     0.188029
 H    -4.794730     5.041198    -0.546413
 C    -3.411625     2.200934    -3.066773
 H    -3.712602     2.137586    -4.115323
 C    -3.899952     3.234733    -2.266836
 H    -4.583254     3.974806    -2.690904
 H    -2.600835    -1.878158    -1.799153
 H    -3.733871    -0.784813    -0.982474
 C    -3.703783    -2.817940    -0.190994
 H    -2.933767    -3.543066     0.116091
 H    -4.228449    -2.517012     0.733877
 C    -4.703767    -3.519292    -1.113783
 H    -4.149580    -3.827924    -2.020449
 C    -5.243895    -4.777602    -0.444674
 H    -4.429633    -5.459365    -0.153800
 H    -5.923805    -5.328525    -1.112792
 H    -5.808232    -4.524396     0.468536
 C    -5.839424    -2.599490    -1.548142
 H    -6.552305    -3.130035    -2.198146
 H    -5.475042    -1.723070    -2.104992
 H    -6.399723    -2.230336    -0.672214
 H    -2.861450    -1.190709     2.173737
 H    -3.334811     0.273953     1.296169
 C    -1.575633     0.501702     2.580595
 H    -0.731748    -0.133908     2.891034
 H    -1.106179     1.335131     2.030822
 C    -2.278519     1.056984     3.820430
 H    -2.788529     0.213444     4.323621
 C    -1.247258     1.629471     4.786533
 H    -0.514610     0.865600     5.088928
 H    -1.721783     2.026078     5.697694
 H    -0.687420     2.453189     4.312837
 C    -3.332573     2.104943     3.476747
 H    -3.851944     2.458848     4.380819
 H    -4.098714     1.718786     2.786829
 H    -2.864095     2.984039     3.002092
