 102
scf done:    -4333.170811
 C     0.813333     1.600357     2.533774
 H     1.607712     0.947529     2.905870
 H     1.108808     2.643943     2.393041
 C    -0.531814     1.272354     2.745086
 H    -0.799166     0.360906     3.287006
 H    -1.294865     2.054786     2.773194
 H     0.377664    -0.528585     1.375743
Co     0.015540     0.799406     0.834000
 C    -1.309396    -2.162626    -0.104056
 O    -2.910908    -0.572753     1.197792
 O    -2.298197     0.094144    -1.212581
 C     1.815388    -1.075850    -1.355955
 O     2.672251     1.376376    -0.972155
 O     2.891397    -0.313331     0.980991
 P     1.775928     0.258135    -0.116054
 P    -1.576364    -0.389921     0.217985
 C    -0.441137     2.293264     0.030905
 O    -0.780354     3.238368    -0.525147
 C    -1.378744    -2.667759    -1.402467
 H    -1.654458    -1.994020    -2.215098
 C    -0.928784    -3.025851     0.944535
 O    -0.853716    -2.485255     2.175776
 C    -0.330915    -3.241007     3.232669
 H    -0.973948    -4.104174     3.476543
 H    -0.288057    -2.572018     4.101311
 H     0.687654    -3.602264     3.008544
 C    -1.105521    -4.006642    -1.671722
 H    -1.166284    -4.380565    -2.694943
 C    -0.648727    -4.369093     0.675716
 H    -0.361149    -5.045733     1.480391
 C    -0.745480    -4.851663    -0.628481
 H    -0.527500    -5.904369    -0.824094
 C    -3.506211     0.459215     1.867692
 C    -3.689810     1.711851     1.285321
 H    -3.359252     1.887933     0.261937
 C    -3.943398     0.188638     3.173402
 C    -3.741039    -1.175878     3.754584
 H    -4.381065    -1.917484     3.249102
 H    -2.705737    -1.512960     3.601963
 H    -3.977684    -1.190017     4.827273
 C    -4.294647     2.731181     2.017929
 H    -4.428884     3.714375     1.561393
 C    -4.553509     1.225718     3.881455
 H    -4.893285     1.034263     4.903106
 C    -4.724903     2.491247     3.319972
 H    -5.198237     3.286577     3.899862
 C    -3.590004    -0.087576    -1.635757
 C    -4.361231    -1.199292    -1.294862
 H    -3.951293    -1.965719    -0.639134
 C    -4.105901     0.928914    -2.459639
 C    -3.271204     2.125236    -2.798165
 H    -3.830214     2.825973    -3.432925
 H    -2.938599     2.662299    -1.896871
 H    -2.352626     1.832887    -3.327201
 C    -5.661199    -1.312686    -1.783373
 H    -6.260980    -2.183657    -1.509275
 C    -5.410057     0.782419    -2.937988
 H    -5.821832     1.566239    -3.579762
 C    -6.189664    -0.324874    -2.608830
 H    -7.208663    -0.410803    -2.992319
 C     2.270860    -2.353513    -1.027044
 H     2.653795    -2.543310    -0.023559
 C     1.271461    -0.856264    -2.637505
 O     0.758797     0.364876    -2.868946
 C     0.125232     0.621643    -4.090208
 H     0.818302     0.511572    -4.941980
 H    -0.218909     1.661632    -4.048801
 H    -0.745324    -0.039368    -4.241941
 C     2.256948    -3.387085    -1.960676
 H     2.624590    -4.376596    -1.684235
 C     1.271822    -1.887522    -3.582545
 H     0.872904    -1.721303    -4.583020
 C     1.775125    -3.141311    -3.241303
 H     1.769575    -3.938576    -3.988584
 C     2.873867     2.652380    -0.510680
 C     3.441565     2.877986     0.743565
 H     3.701299     2.026598     1.373354
 C     2.540092     3.715750    -1.362755
 C     1.921286     3.454343    -2.700175
 H     2.409282     2.609981    -3.206281
 H     0.860010     3.185331    -2.581735
 H     1.978690     4.345600    -3.340051
 C     3.668203     4.181664     1.176767
 H     4.108385     4.354391     2.161489
 C     2.787887     5.013415    -0.905465
 H     2.533585     5.854226    -1.556653
 C     3.339739     5.254146     0.351065
 H     3.517283     6.279810     0.682010
 C     4.179541    -0.744276     0.827869
 C     4.975625    -0.454418    -0.280198
 H     4.570285     0.144102    -1.094857
 C     4.669275    -1.513611     1.898652
 C     3.778507    -1.803581     3.067446
 H     4.271234    -2.473587     3.785122
 H     3.495981    -0.877159     3.592450
 H     2.833038    -2.265365     2.740709
 C     6.282188    -0.938200    -0.326904
 H     6.904154    -0.710410    -1.195689
 C     5.981690    -1.982094     1.821189
 H     6.374227    -2.582424     2.646711
 C     6.790063    -1.701887     0.719821
 H     7.813959    -2.080030     0.682120
