  86
scf done:    -3724.007959
 C    -2.144276    -2.230198    -2.104975
 H    -2.654204    -3.140124    -1.773605
 H    -2.824031    -1.419923    -2.381523
 C    -0.860228    -2.313648    -2.677302
 H    -0.387301    -3.293665    -2.799189
 H    -0.541263    -1.571772    -3.415750
 H    -0.901505    -0.276371    -1.441859
Co    -0.761980    -1.582953    -0.782391
 O    -1.585565     1.082307     0.836097
 O    -3.532504    -0.386234     0.066155
 O    -2.202155    -0.938142     2.068764
 O     1.735079    -0.823794     0.964469
 O     2.437247    -1.521447    -1.404953
 O     1.447696     0.705441    -0.998912
 P     1.177049    -0.834897    -0.615003
 P    -1.983747    -0.517279     0.511357
 C    -0.595681    -3.099664     0.090607
 O    -0.486989    -4.085898     0.668214
 C    -1.391705     2.077233    -0.071024
 C    -1.959834     2.063652    -1.346015
 H    -2.590990     1.226725    -1.647755
 C    -0.615455     3.165131     0.337834
 H    -0.184284     3.161963     1.339622
 C    -1.735645     3.119957    -2.237723
 C    -2.317116     3.060146    -3.620530
 H    -1.788657     2.312382    -4.235054
 H    -3.377502     2.765835    -3.597980
 H    -2.240861     4.028756    -4.133954
 C    -0.409376     4.223077    -0.537575
 H     0.192006     5.077347    -0.216532
 C    -0.955753     4.202077    -1.821988
 H    -0.780362     5.036840    -2.505092
 C    -4.530568     0.257575     0.883027
 H    -4.015478     0.841528     1.663510
 C    -5.377918    -0.815182     1.534043
 H    -4.748473    -1.462927     2.158757
 H    -5.868243    -1.432638     0.765797
 H    -6.156086    -0.361759     2.166578
 C    -5.316603     1.192359    -0.010902
 H    -4.663614     1.965680    -0.439718
 H    -5.783287     0.630528    -0.834757
 H    -6.111641     1.691219     0.563184
 C    -1.081694    -1.088267     2.957752
 H    -0.158365    -1.130607     2.353075
 C    -1.254577    -2.396251     3.698760
 H    -1.281147    -3.242044     2.998701
 H    -2.193467    -2.387789     4.274003
 H    -0.419817    -2.551906     4.398273
 C    -1.027100     0.114675     3.878799
 H    -0.972793     1.041904     3.292666
 H    -1.930593     0.157229     4.506828
 H    -0.146559     0.056420     4.536107
 C     2.671926     0.077634     1.398529
 C     2.230666     1.202217     2.091200
 H     1.156443     1.324226     2.237921
 C     4.030368    -0.123204     1.159176
 H     4.354597    -1.006000     0.608309
 C     3.136827     2.157767     2.556444
 C     2.641654     3.393542     3.250087
 H     2.312840     4.147061     2.514504
 H     1.780001     3.173728     3.897751
 H     3.426127     3.855733     3.865936
 C     4.939843     0.823087     1.627465
 H     6.008196     0.676786     1.450477
 C     4.501456     1.951686     2.318278
 H     5.227783     2.685515     2.677174
 C     2.502437    -2.936243    -1.610809
 H     1.468049    -3.305000    -1.717434
 C     3.146122    -3.611495    -0.415659
 H     2.591694    -3.387499     0.506824
 H     4.185107    -3.269629    -0.286853
 H     3.158204    -4.702901    -0.553707
 C     3.246250    -3.159994    -2.908625
 H     2.730990    -2.653916    -3.737658
 H     4.269592    -2.759528    -2.840107
 H     3.307842    -4.233906    -3.138523
 C     2.362007     1.242762    -1.965022
 H     3.186854     0.525360    -2.092741
 C     2.896271     2.538638    -1.396160
 H     3.403039     2.358246    -0.437497
 H     2.071234     3.246288    -1.229747
 H     3.615859     2.990718    -2.095226
 C     1.624268     1.412881    -3.277649
 H     1.259608     0.441027    -3.642797
 H     0.760110     2.079798    -3.137054
 H     2.286415     1.843868    -4.043587
