  88
scf done:    -3974.185127
 C    -1.142113    -0.411014    -3.298279
 H    -1.814555    -1.243963    -3.527978
 H    -1.618081     0.568149    -3.411485
 C     0.247003    -0.545588    -3.517368
 H     0.632892    -1.484731    -3.930384
 H     0.847410     0.331076    -3.778684
 H     0.015929     0.856121    -1.608818
Co    -0.166895    -0.611559    -1.544714
 C    -1.773215    -0.815510     1.521813
 C    -2.036812     1.672643     0.158177
 C    -3.470636    -0.625974    -0.727914
 C     2.338828    -1.630861     0.537588
 C     3.100494     0.309632    -1.377827
 C     1.413921     1.102872     0.810753
 P     1.619758    -0.228091    -0.434465
 P    -1.785849    -0.113636    -0.191159
 C    -0.129038    -2.359558    -1.474809
 O    -0.027666    -3.507204    -1.457999
 H    -2.726809    -0.556644     2.012097
 H    -0.970104    -0.285938     2.056273
 C    -1.552348    -2.317006     1.574766
 H    -2.290418    -2.825294     0.931459
 H    -0.565957    -2.560048     1.145594
 C    -1.639091    -2.915632     2.981495
 H    -2.656958    -2.714351     3.365565
 C    -1.449555    -4.426624     2.918552
 H    -2.180812    -4.895958     2.242585
 H    -1.560701    -4.889032     3.911404
 H    -0.443423    -4.678572     2.543176
 C    -0.643114    -2.283240     3.948163
 H    -0.709846    -2.747155     4.944199
 H    -0.813422    -1.203588     4.076769
 H     0.391522    -2.421230     3.591624
 C    -1.998709     2.563848    -0.924088
 H    -1.808418     2.176054    -1.926907
 C    -2.258285     2.191613     1.438372
 H    -2.288167     1.534454     2.307645
 C    -2.177551     3.929390    -0.740241
 H    -2.149860     4.628919    -1.577676
 C    -2.424239     3.560926     1.642732
 H    -2.567814     3.976338     2.641589
 C    -2.381804     4.412211     0.548553
 F    -2.528148     5.722034     0.734516
 C    -4.612494     0.138337    -0.456775
 H    -4.516379     1.100354     0.051782
 C    -3.625251    -1.849711    -1.392273
 H    -2.744709    -2.450104    -1.628952
 C    -5.877523    -0.304725    -0.834146
 H    -6.773638     0.286223    -0.635953
 C    -4.884513    -2.312613    -1.762642
 H    -5.015519    -3.265703    -2.278073
 C    -5.996784    -1.528989    -1.480272
 F    -7.203509    -1.958038    -1.842436
 H     2.376770    -2.468409    -0.179479
 H     1.563911    -1.915544     1.268025
 C     3.698300    -1.433410     1.187995
 H     4.421779    -1.134818     0.412524
 H     3.664699    -0.591111     1.901773
 C     4.240584    -2.671935     1.907911
 H     4.295441    -3.488403     1.163306
 C     5.652956    -2.405061     2.415506
 H     6.322457    -2.096549     1.597676
 H     6.086897    -3.299573     2.888347
 H     5.652553    -1.598064     3.167308
 C     3.333160    -3.136443     3.041888
 H     3.769104    -3.997598     3.571184
 H     2.340929    -3.446549     2.680969
 H     3.187301    -2.332332     3.783706
 C     3.980026     1.308690    -0.944015
 H     3.775653     1.854754    -0.020816
 C     3.401071    -0.386905    -2.555358
 H     2.717428    -1.163613    -2.903976
 C     5.126604     1.616728    -1.672339
 H     5.817676     2.397063    -1.348345
 C     4.550369    -0.100507    -3.285321
 H     4.795070    -0.637135    -4.203735
 C     5.397006     0.905817    -2.835000
 F     6.492142     1.195025    -3.533522
 C     1.339564     0.850430     2.184599
 H     1.496930    -0.157433     2.572668
 C     1.199081     2.415808     0.362571
 H     1.226933     2.630818    -0.708473
 C     1.046232     1.870436     3.090128
 H     0.972087     1.678107     4.161995
 C     0.932684     3.447478     1.252734
 H     0.756685     4.468344     0.910303
 C     0.843634     3.155798     2.609267
 F     0.539041     4.130999     3.463048
