  74
scf done:    -3194.246912
 C    -3.070083    -0.682384    -2.238935
 H    -4.086037    -1.033221    -2.024793
 H    -3.038265     0.309613    -2.704511
 C    -2.059574    -1.625324    -2.548007
 H    -2.307258    -2.692011    -2.573723
 H    -1.266176    -1.345506    -3.249529
 H    -0.965020     0.173978    -1.316733
Co    -1.792292    -0.887932    -0.698156
 C    -2.211857     2.469047    -0.255869
 C    -4.372821     0.783538     0.572623
 C    -2.010701     1.013792     2.206113
 C     1.031745    -0.437301     1.042860
 C     0.574006    -3.176389     0.234713
 C     1.379907    -1.209200    -1.746757
 P     0.235686    -1.444723    -0.309682
 P    -2.524375     0.771219     0.444945
 C    -2.604520    -2.145685     0.196976
 O    -3.120123    -2.974290     0.812073
 H    -2.655931     2.447492    -1.262731
 H    -2.772157     3.202203     0.344676
 C    -0.765750     2.854738    -0.323226
 C    -0.142155     3.489918     0.756983
 H    -0.723824     3.734697     1.649367
 C     0.002636     2.570215    -1.460692
 H    -0.476750     2.080604    -2.311854
 C     1.209363     3.824898     0.697109
 H     1.683629     4.323303     1.545906
 C     1.359329     2.896110    -1.537991
 C     2.165228     2.576521    -2.764241
 H     3.046684     1.964326    -2.512713
 H     1.571286     2.022350    -3.504001
 H     2.538436     3.493624    -3.247440
 C     1.955148     3.531726    -0.440442
 H     3.014190     3.802167    -0.481866
 H    -4.647514    -0.233229     0.898388
 C    -5.041830     1.829392     1.448683
 H    -4.782136     2.856236     1.148279
 H    -4.771146     1.713767     2.509144
 H    -4.722933     0.854640    -0.469754
 H    -6.137714     1.743494     1.383773
 H    -2.506537     1.914291     2.606028
 C    -2.292510    -0.197509     3.079844
 H    -1.790427    -1.094818     2.688061
 H    -3.367888    -0.428701     3.131254
 H    -0.932849     1.233670     2.191117
 H    -1.939430    -0.033838     4.109477
 H     0.761487     0.601728     0.799881
 H     0.486409    -0.711540     1.959421
 C     2.510199    -0.562640     1.227917
 C     3.073902    -1.600940     1.981956
 H     2.423119    -2.309539     2.500450
 C     3.368148     0.350255     0.607764
 H     2.929421     1.179231     0.046583
 C     4.456357    -1.731016     2.073230
 H     4.887743    -2.544612     2.661729
 C     4.759504     0.233498     0.685651
 C     5.639567     1.223700    -0.021460
 H     5.546867     1.125256    -1.115612
 H     5.361044     2.258072     0.233866
 H     6.698495     1.083425     0.236885
 C     5.295799    -0.826829     1.422636
 H     6.380795    -0.938445     1.498566
 H     0.096359    -3.281383     1.223855
 C     0.024228    -4.220822    -0.725167
 H     0.458152    -4.119146    -1.731836
 H    -1.065838    -4.131895    -0.830319
 H     1.657210    -3.307777     0.384981
 H     0.248534    -5.237748    -0.368191
 H     1.574767    -0.124011    -1.766167
 C     2.675701    -2.003780    -1.806739
 H     2.486339    -3.084063    -1.892125
 H     3.312446    -1.842756    -0.926419
 H     0.763694    -1.409874    -2.635897
 H     3.258132    -1.708212    -2.693986
