  92
scf done:    -4274.970899
 C    -0.682171    -1.765679    -3.106737
 H    -1.239255    -2.707138    -3.155468
 H    -1.244654    -0.901626    -3.474164
 C     0.723468    -1.777448    -3.198602
 H     1.260818    -2.724706    -3.303415
 H     1.250764    -0.918828    -3.623507
 H     0.159986     0.011261    -1.648218
Co     0.158220    -1.425837    -1.291561
 C    -2.663438     0.429015    -1.040845
 O    -2.356820    -1.586356     0.731407
 O    -0.862680     0.415689     1.003668
 C     2.452386    -1.711031     1.172460
 O     3.293160    -1.043457    -1.373113
 O     2.143730     0.669859     0.166405
 P     1.959662    -0.891220    -0.380763
 P    -1.393473    -0.591241    -0.219085
 C     0.059074    -3.084274    -0.724546
 O    -0.046389    -4.159850    -0.339905
 H    -3.352833     0.808455    -0.267896
 H    -3.247096    -0.266391    -1.664618
 C    -2.092564     1.568504    -1.874426
 H    -1.342990     2.126474    -1.288925
 H    -1.535846     1.153710    -2.731500
 C    -3.154171     2.544673    -2.388762
 H    -3.641770     2.998060    -1.504153
 C    -2.500879     3.662722    -3.192101
 H    -1.736402     4.198797    -2.611985
 H    -3.246178     4.399701    -3.528701
 H    -2.006678     3.257087    -4.090825
 C    -4.232711     1.846030    -3.209563
 H    -4.961710     2.572126    -3.600745
 H    -4.792918     1.104010    -2.621016
 H    -3.788170     1.324008    -4.074010
 C    -3.619342    -1.985323     0.398154
 C    -3.814661    -2.993977    -0.548041
 H    -2.947242    -3.458141    -1.020740
 C    -4.713876    -1.393792     1.031535
 H    -4.536824    -0.611964     1.773083
 C    -5.105822    -3.403374    -0.870675
 H    -5.286383    -4.189388    -1.606049
 C    -6.006023    -1.804637     0.715635
 H    -6.878753    -1.359624     1.196885
 C    -6.186302    -2.802075    -0.235740
 F    -7.422527    -3.192840    -0.543344
 C    -1.692647     1.016480     1.911224
 C    -2.067801     0.330935     3.068776
 H    -1.725068    -0.694375     3.209923
 C    -2.122062     2.328548     1.703326
 H    -1.810616     2.854545     0.799882
 C    -2.877282     0.953610     4.014562
 H    -3.183499     0.439782     4.927568
 C    -2.932036     2.955683     2.647291
 H    -3.280007     3.980672     2.507640
 C    -3.301546     2.259018     3.791414
 F    -4.076814     2.855313     4.695697
 H     2.734757    -2.733390     0.869643
 H     1.484614    -1.825987     1.689253
 C     3.489702    -1.069046     2.102280
 H     4.363642    -1.734324     2.178453
 H     3.867305    -0.126426     1.677498
 C     2.947888    -0.779199     3.505413
 H     2.489861    -1.713068     3.884656
 C     4.085188    -0.400294     4.445857
 H     4.838373    -1.200683     4.514267
 H     3.714719    -0.196574     5.462465
 H     4.597437     0.509271     4.090156
 C     1.872970     0.302774     3.486760
 H     1.422662     0.433815     4.482894
 H     1.062932     0.081418     2.776257
 H     2.310493     1.268718     3.185324
 C     4.584308    -0.891078    -0.939850
 C     5.350090    -2.027927    -0.680604
 H     4.901784    -3.012584    -0.825898
 C     5.140232     0.380564    -0.786638
 H     4.536397     1.262933    -1.002803
 C     6.666695    -1.899355    -0.246299
 H     7.286320    -2.773006    -0.036581
 C     6.455069     0.514002    -0.350237
 H     6.912363     1.496073    -0.217623
 C     7.201189    -0.627459    -0.080002
 F     8.458967    -0.499203     0.340372
 C     1.721308     1.793037    -0.471093
 C     1.863448     1.970293    -1.850612
 H     2.305300     1.177261    -2.456427
 C     1.161954     2.803647     0.312814
 H     1.051931     2.634290     1.384352
 C     1.435581     3.156199    -2.444704
 H     1.528337     3.316566    -3.520109
 C     0.743849     3.991998    -0.276676
 H     0.306927     4.798043     0.315818
 C     0.883963     4.151780    -1.650548
 F     0.465508     5.286433    -2.218242
