 120
scf done:    -4492.962755
 C    -0.330293    -2.408535    -1.331886
 H     0.546313    -3.061512    -1.300195
 H    -1.286832    -2.939358    -1.268999
 C    -0.256453    -1.182083    -2.039601
 H     0.672102    -0.908272    -2.542504
 H    -1.151678    -0.807483    -2.547417
 H    -0.025643     0.548949     0.410139
Co    -0.164995    -0.872087    -0.039983
 C    -2.153303     1.534591    -1.257188
 C    -3.352069    -1.152508    -0.809538
 C    -3.029908     0.701394     1.303601
 C     2.464053    -0.171267     1.850241
 C     3.336455    -1.540659    -0.406571
 C     2.304102     1.198625    -0.792401
 P     1.951389    -0.388936     0.089218
 P    -2.090554     0.047821    -0.163591
 C    -0.308229    -1.844046     1.393848
 O    -0.390594    -2.523190     2.328908
 H    -3.199141     1.734526    -1.518489
 H    -1.624794     1.244873    -2.172433
 C    -1.513220     2.764800    -0.636891
 H    -1.939546     2.944289     0.365464
 H    -0.435480     2.584571    -0.490354
 C    -1.718621     4.022688    -1.487798
 H    -2.810679     4.161761    -1.602721
 C    -1.168264     5.256977    -0.783167
 H    -1.582344     5.359724     0.232676
 H    -1.405988     6.177941    -1.338827
 H    -0.071555     5.196731    -0.699246
 C    -1.112617     3.881993    -2.880716
 H    -1.224841     4.812910    -3.459278
 H    -1.590712     3.074961    -3.455548
 H    -0.036875     3.650849    -2.812362
 C    -3.754052    -2.173515     0.075733
 O    -3.243114    -2.103528     1.317041
 C    -3.524575    -3.098282     2.256624
 H    -2.938121    -2.850652     3.149287
 H    -4.597797    -3.121628     2.515394
 H    -3.215033    -4.095532     1.899504
 C    -3.843416    -1.207137    -2.124997
 O    -3.439547    -0.233903    -2.971350
 C    -3.798947    -0.289685    -4.319539
 H    -3.317904     0.569956    -4.804514
 H    -4.891594    -0.210013    -4.461429
 H    -3.443816    -1.217448    -4.801120
 C    -4.718913    -2.222783    -2.534311
 H    -5.093583    -2.254602    -3.556419
 C    -4.634505    -3.187951    -0.320568
 H    -4.940841    -3.963627     0.379980
 C    -5.108001    -3.200024    -1.626507
 H    -5.790661    -3.990972    -1.946195
 C    -4.383332     1.068542     1.139650
 O    -4.871714     1.035971    -0.117247
 C    -6.251906     1.019353    -0.336130
 H    -6.392076     0.802144    -1.403274
 H    -6.746273     0.230187     0.255719
 H    -6.722049     1.991615    -0.105336
 C    -2.494794     0.780208     2.606073
 O    -1.197981     0.475362     2.765382
 C    -0.683234     0.269384     4.048093
 H     0.326207    -0.137222     3.913081
 H    -1.282578    -0.462283     4.616201
 H    -0.620029     1.209290     4.625635
 C    -3.293052     1.162707     3.695555
 H    -2.868756     1.215304     4.697058
 C    -5.185299     1.444682     2.223878
 H    -6.229604     1.716241     2.074464
 C    -4.628318     1.483465     3.495003
 H    -5.245265     1.780579     4.346639
 H     2.337131    -1.190537     2.254312
 H     1.692020     0.459629     2.302428
 C     3.867972     0.337896     2.121125
 H     4.593476    -0.350654     1.659339
 H     4.017991     1.312541     1.627069
 C     4.204760     0.476017     3.608563
 H     3.969535    -0.490588     4.093778
 C     5.694444     0.741861     3.793524
 H     6.303043    -0.060195     3.347586
 H     5.964885     0.820473     4.858480
 H     5.983697     1.687999     3.305528
 C     3.377697     1.557928     4.294802
 H     3.613226     1.620739     5.368957
 H     2.297281     1.373989     4.201215
 H     3.586484     2.544861     3.848962
 C     4.568080    -1.156159    -0.974884
 O     4.837840     0.161958    -1.002237
 C     5.965946     0.639613    -1.669662
 H     5.905342     1.735066    -1.631222
 H     6.902803     0.312314    -1.184454
 H     5.985843     0.321048    -2.727024
 C     3.153959    -2.915790    -0.155700
 O     2.091368    -3.239117     0.600421
 C     1.729428    -4.578057     0.783482
 H     0.804542    -4.562812     1.372318
 H     2.503827    -5.137307     1.337395
 H     1.538818    -5.082201    -0.179659
 C     4.058400    -3.878017    -0.627263
 H     3.879636    -4.938859    -0.457480
 C     5.481924    -2.106931    -1.448570
 H     6.416124    -1.795505    -1.914394
 C     5.203452    -3.459863    -1.291311
 H     5.913496    -4.202783    -1.662819
 C     2.581811     1.209120    -2.173125
 O     2.667762     0.001038    -2.764287
 C     2.913796    -0.096932    -4.135112
 H     2.934075    -1.168898    -4.368669
 H     2.118864     0.386762    -4.729466
 H     3.886394     0.347804    -4.411325
 C     2.149917     2.445056    -0.160327
 O     1.765185     2.424601     1.132513
 C     1.453761     3.615410     1.794619
 H     1.083478     3.327742     2.786744
 H     0.664549     4.178473     1.270354
 H     2.339688     4.262907     1.920004
 C     2.369193     3.647196    -0.849005
 H     2.280727     4.602625    -0.333903
 C     2.778052     2.401786    -2.876514
 H     3.003185     2.388567    -3.942095
 C     2.687600     3.613943    -2.199283
 H     2.849145     4.549497    -2.739672
