  84
scf done:    -3125.284841
 C     0.633895     0.771350     2.773729
 H    -0.246554     0.997207     3.384052
 H     1.421545     0.261367     3.339374
 C     0.985669     1.629036     1.699628
 H     0.392366     2.525523     1.496798
 H     2.048045     1.796481     1.486420
 H     0.176525    -0.038985    -0.481847
Co     0.200629    -0.099690     1.012868
 C     2.906609     0.714420    -0.827464
 C     3.478113    -0.905578     1.444622
 C     2.197860    -2.101847    -0.940245
 C    -2.351592     0.020574    -1.154630
 C    -3.209017    -0.074534     1.577529
 C    -2.032918     2.457019     0.370053
 P    -1.816282     0.601965     0.518674
 P     2.107332    -0.616949     0.193999
 C    -0.295924    -1.618373     1.688375
 O    -0.648282    -2.586847     2.213410
 H     3.652486     0.247261    -1.492681
 H     3.478242     1.324202    -0.110493
 C     1.956179     1.603617    -1.613377
 H     1.433928     1.003809    -2.375811
 H     1.166297     1.954531    -0.929016
 C     2.610971     2.807081    -2.295284
 H     3.422891     2.434087    -2.948749
 C     1.589187     3.516947    -3.177018
 H     1.168680     2.836636    -3.934160
 H     2.033634     4.375769    -3.703645
 H     0.750006     3.896264    -2.569493
 C     3.221892     3.779214    -1.291476
 H     3.657223     4.653982    -1.798957
 H     4.022190     3.316688    -0.694442
 H     2.453639     4.145759    -0.589877
 H     3.460738     0.055546     1.991587
 C     3.144955    -2.006611     2.444379
 H     3.825509    -1.952285     3.309146
 H     2.114517    -1.924887     2.816930
 H     3.269497    -3.005874     1.999565
 C     4.873837    -1.095837     0.861819
 H     5.177596    -0.273121     0.199412
 H     5.616787    -1.153733     1.674074
 H     4.950829    -2.036098     0.292664
 H     3.273891    -2.341406    -1.003182
 C     1.458880    -3.312905    -0.383251
 H     1.659420    -4.195037    -1.012720
 H     1.746623    -3.560254     0.646265
 H     0.372674    -3.143984    -0.382260
 C     1.701118    -1.784247    -2.346839
 H     2.320316    -1.032830    -2.856342
 H     1.716331    -2.697309    -2.963548
 H     0.664408    -1.414395    -2.325148
 H    -1.685235     0.542825    -1.862600
 H    -3.375689     0.365278    -1.361050
 C    -2.225466    -1.482170    -1.350071
 H    -1.242336    -1.790027    -0.960593
 H    -2.978087    -2.011191    -0.737671
 C    -2.357288    -1.948945    -2.801080
 H    -1.589583    -1.409431    -3.388700
 C    -2.059523    -3.440164    -2.904304
 H    -1.058202    -3.676650    -2.512566
 H    -2.106604    -3.789700    -3.947444
 H    -2.790282    -4.026790    -2.322895
 C    -3.720264    -1.619347    -3.399303
 H    -3.795608    -1.973800    -4.439101
 H    -3.919489    -0.537024    -3.404724
 H    -4.526034    -2.105370    -2.823279
 H    -3.125771    -1.149213     1.332053
 C    -2.952269     0.044721     3.076094
 H    -3.689152    -0.559409     3.629303
 H    -1.951855    -0.318592     3.343350
 H    -3.046162     1.081237     3.430503
 C    -4.617995     0.380538     1.215456
 H    -4.844510     0.263478     0.145816
 H    -5.358518    -0.216348     1.772616
 H    -4.786678     1.434025     1.485400
 H    -1.044804     2.746782    -0.029386
 C    -3.088432     2.958871    -0.610091
 H    -3.072071     4.061158    -0.631175
 H    -2.906753     2.612884    -1.636779
 H    -4.105161     2.653879    -0.323534
 C    -2.194114     3.116745     1.737074
 H    -1.473661     2.738604     2.475782
 H    -2.045311     4.205145     1.651622
 H    -3.205385     2.957051     2.140388
