  90
scf done:    -6013.982460
 C     0.110924     1.682925     3.779517
 H     0.791560     1.218219     4.499638
 H     0.461456     2.641030     3.387342
 C    -1.258709     1.382000     3.809873
 H    -1.653435     0.671722     4.542307
 H    -1.992522     2.105835     3.446080
 H    -0.654223     1.662114     1.488991
Co    -0.359951     0.429976     2.249265
 O     1.033558     1.082515    -0.590014
 O     2.367496     1.727447     1.492855
 O     2.141279    -0.715158     0.679801
 O    -3.469530    -0.132731     1.988725
 O    -2.288531     0.568654    -0.202997
 O    -2.135514    -1.809177     0.725431
 P    -2.033836    -0.216475     1.222895
 P     1.245306     0.616635     0.984578
 C     0.121161    -1.025253     3.123787
 O     0.464206    -1.941468     3.717525
 C     0.338524     2.173721    -1.033050
 C     0.315944     3.378953    -0.334964
 H     0.868059     3.471850     0.602104
 C    -0.331338     2.041527    -2.250520
 H    -0.304346     1.083195    -2.771108
 C    -0.401451     4.472616    -0.838912
 C    -0.427392     5.762087    -0.070870
 H     0.588031     6.170729     0.052593
 H    -1.037825     6.521757    -0.578150
 H    -0.839320     5.613203     0.939754
 C    -1.029816     3.128557    -2.758397
 H    -1.561914     3.031116    -3.707397
 C    -1.072048     4.335051    -2.056960
 H    -1.629966     5.182236    -2.463571
 C     3.694575     1.729855     1.143391
 C     4.103857     2.042745    -0.152013
 H     3.361801     2.316101    -0.903041
 C     4.630205     1.397871     2.120987
 H     4.281416     1.174233     3.130725
 C     5.450646     1.954278    -0.487696
 H     5.783666     2.158099    -1.506182
 C     5.979274     1.321423     1.792054
 H     6.722374     1.043234     2.540911
 C     6.379362     1.576830     0.481105
Cl     8.046069     1.404623     0.045914
 C     3.188780    -0.964591    -0.177022
 C     4.345813    -1.508141     0.376136
 H     4.385606    -1.677939     1.452759
 C     3.100960    -0.750161    -1.551996
 H     2.190389    -0.331480    -1.972841
 C     5.435072    -1.804436    -0.435181
 H     6.353435    -2.209470    -0.008144
 C     4.187580    -1.050525    -2.366167
 H     4.133910    -0.882837    -3.442925
 C     5.353699    -1.567102    -1.805718
Cl     6.712361    -1.919100    -2.821023
 C    -4.721588    -0.540296     1.572395
 C    -5.030010    -1.892627     1.473909
 H    -4.262505    -2.628879     1.714665
 C    -5.670347     0.439518     1.288183
 H    -5.397620     1.491138     1.383364
 C    -6.297320    -2.292750     1.033633
 C    -6.630705    -3.752915     0.929339
 H    -5.813569    -4.319083     0.457299
 H    -6.793418    -4.191675     1.927518
 H    -7.545288    -3.916247     0.342351
 C    -6.927451     0.044744     0.846262
 H    -7.671780     0.801758     0.589265
 C    -7.236840    -1.308574     0.710790
 H    -8.224971    -1.605422     0.350463
 C    -3.412552     0.620265    -0.984951
 C    -3.911502     1.884171    -1.295078
 H    -3.386338     2.762363    -0.916296
 C    -4.032283    -0.527943    -1.479432
 H    -3.638254    -1.512670    -1.229557
 C    -5.064152     2.004723    -2.063461
 H    -5.474110     2.987045    -2.303313
 C    -5.191677    -0.408807    -2.238483
 H    -5.706659    -1.298448    -2.602997
 C    -5.708403     0.854880    -2.518134
Cl    -7.174059     0.997461    -3.432300
 C    -1.036709    -2.399237     0.150982
 C    -0.348330    -3.378773     0.863679
 H    -0.686394    -3.644540     1.865972
 C    -0.624349    -2.044068    -1.134467
 H    -1.168925    -1.276588    -1.685597
 C     0.771107    -3.987879     0.306300
 H     1.331140    -4.739224     0.864707
 C     0.481860    -2.667596    -1.702127
 H     0.812192    -2.406365    -2.707974
 C     1.185573    -3.625020    -0.973755
Cl     2.601606    -4.348326    -1.655553
