  88
scf done:    -5415.298476
 C    -1.032757    -1.403670    -3.041185
 H    -1.744714    -2.234830    -3.072853
 H    -1.449599    -0.466396    -3.423047
 C     0.351689    -1.655855    -3.159199
 H     0.695835    -2.687347    -3.296685
 H     1.007853    -0.906912    -3.612852
 H     0.146781     0.204068    -1.688446
Co    -0.120803    -1.185632    -1.254738
 C    -1.835031    -0.512780     1.683236
 C    -1.901424     1.546963    -0.285292
 C    -3.444279    -0.829093    -0.617650
 C     2.268230    -1.745693     1.116151
 C     3.184913    -0.404174    -1.199413
 C     1.487088     1.006262     0.642782
 P     1.651334    -0.610102    -0.209723
 P    -1.750523    -0.279255    -0.150873
 C    -0.184866    -2.855589    -0.734115
 O    -0.151479    -3.962822    -0.417994
 H    -2.786030    -0.089000     2.047362
 H    -1.018590     0.097786     2.098172
 C    -1.703749    -1.957683     2.131742
 H    -2.455234    -2.578133     1.614912
 H    -0.723562    -2.353997     1.818165
 C    -1.857786    -2.162924     3.641404
 H    -2.869391    -1.814162     3.922485
 C    -1.760005    -3.645976     3.978994
 H    -2.504414    -4.235342     3.421841
 H    -1.920188    -3.826591     5.053034
 H    -0.763543    -4.040808     3.718550
 C    -0.845615    -1.354875     4.447002
 H    -0.961684    -1.539238     5.525986
 H    -0.952001    -0.271328     4.286173
 H     0.185943    -1.636465     4.176187
 C    -2.127207     2.389857     0.807398
 H    -2.242743     1.982505     1.811974
 C    -1.757187     2.126782    -1.553621
 H    -1.566665     1.484557    -2.415943
 C    -2.181205     3.773924     0.651389
 H    -2.317981     4.428147     1.513223
 C    -1.821103     3.503137    -1.728482
 H    -1.700260     3.949170    -2.716980
 C    -2.018288     4.322972    -0.616171
Cl    -2.024967     6.042740    -0.812736
 C    -3.652566    -2.176253    -0.938733
 H    -2.805103    -2.864431    -0.960707
 C    -4.543508     0.037637    -0.622344
 H    -4.406399     1.095165    -0.384839
 C    -4.924107    -2.655525    -1.238201
 H    -5.083063    -3.706685    -1.483763
 C    -5.819120    -0.424587    -0.934670
 H    -6.673347     0.254371    -0.945228
 C    -6.002927    -1.772575    -1.237433
Cl    -7.586536    -2.355184    -1.624349
 H     2.282122    -2.739962     0.638332
 H     1.458042    -1.798847     1.861824
 C     3.617392    -1.447242     1.749538
 H     4.377289    -1.390135     0.953764
 H     3.608360    -0.449223     2.222746
 C     4.072911    -2.481640     2.783302
 H     4.105723    -3.463649     2.274759
 C     5.482482    -2.154994     3.262915
 H     6.190055    -2.096668     2.421390
 H     5.855184    -2.915984     3.965728
 H     5.503362    -1.182684     3.783102
 C     3.110408    -2.598688     3.960214
 H     3.485180    -3.313017     4.709217
 H     2.113705    -2.947518     3.650471
 H     2.986414    -1.625334     4.465550
 C     3.482286    -1.400134    -2.137490
 H     2.770329    -2.212447    -2.297758
 C     4.102270     0.635408    -1.010180
 H     3.902725     1.415992    -0.273150
 C     4.664885    -1.367289    -2.869111
 H     4.895360    -2.145735    -3.598169
 C     5.283032     0.689467    -1.746484
 H     5.995591     1.503145    -1.601746
 C     5.558509    -0.314913    -2.672581
Cl     7.025910    -0.255220    -3.588771
 C     1.364317     1.119145     2.031455
 H     1.451659     0.238547     2.670284
 C     1.359684     2.169348    -0.131857
 H     1.424984     2.102518    -1.220684
 C     1.112837     2.350772     2.635135
 H     1.005314     2.429759     3.718180
 C     1.132294     3.407110     0.455389
 H     1.023963     4.306040    -0.153066
 C     0.998237     3.488045     1.841415
Cl     0.650870     5.016372     2.576552
