 100
scf done:    -3734.557037
 C     0.944037     1.406807     3.221454
 H     1.666815     0.942542     3.900728
 H     1.260372     2.389857     2.856565
 C    -0.431404     1.126094     3.382379
 H    -0.743474     0.439923     4.176539
 H    -1.183423     1.882853     3.138605
 H    -0.034364     1.487021     1.067622
Co     0.274422     0.212913     1.735557
 C     2.547356     1.989345    -0.095618
 C     3.576307    -0.374382     1.016800
 C     1.854730    -0.610122    -1.168437
 C    -1.644614    -1.960851    -0.092311
 C    -3.104204    -0.089827     1.434187
 C    -1.691573     0.799064    -0.911497
 P    -1.480182    -0.246080     0.580674
 P     1.970893     0.314874     0.420096
 C     0.511369    -1.386561     2.410299
 O     0.611784    -2.467437     2.798753
 H     3.362498     1.854971    -0.827411
 H     3.016101     2.401868     0.811789
 C     1.479023     2.933044    -0.628823
 H     0.852361     2.422090    -1.378508
 H     0.785336     3.190392     0.189682
 C     2.043358     4.216248    -1.244225
 H     2.729590     3.918848    -2.061029
 C     0.923953     5.047189    -1.858695
 H     0.359762     4.467177    -2.604831
 H     1.316681     5.951166    -2.349942
 H     0.209897     5.371525    -1.083899
 C     2.843513     5.037653    -0.239369
 H     3.222535     5.964866    -0.696613
 H     3.710612     4.485753     0.153106
 H     2.212176     5.323070     0.619156
 C     3.762225    -0.645263     2.372208
 H     2.941166    -0.472164     3.068350
 C     4.632462    -0.605925     0.124431
 H     4.487231    -0.417346    -0.943675
 C     4.987883    -1.136181     2.823543
 H     5.127557    -1.351356     3.885785
 C     5.864770    -1.095800     0.559718
 C     6.987306    -1.344155    -0.406219
 H     6.687672    -1.114160    -1.438221
 H     7.866342    -0.725714    -0.163717
 H     7.314605    -2.395551    -0.375924
 C     6.027450    -1.358155     1.927813
 H     6.983191    -1.748080     2.290138
 C     1.920987    -0.026827    -2.436983
 H     2.054706     1.049731    -2.549661
 C     1.682855    -1.996609    -1.071157
 H     1.637327    -2.457772    -0.078953
 C     1.799419    -0.822624    -3.576103
 H     1.838566    -0.359610    -4.565339
 C     1.578358    -2.810502    -2.201706
 C     1.433024    -4.297427    -2.055098
 H     0.706382    -4.552585    -1.268647
 H     1.102165    -4.766863    -2.992056
 H     2.392740    -4.758289    -1.769540
 C     1.626227    -2.199179    -3.462094
 H     1.530469    -2.813396    -4.361612
 H    -1.421760    -2.627194     0.757431
 H    -0.799723    -2.082409    -0.787808
 C    -2.974132    -2.333226    -0.731682
 H    -3.737836    -2.402116     0.059352
 H    -3.315874    -1.526922    -1.405086
 C    -2.940041    -3.644904    -1.522144
 H    -2.437031    -4.402829    -0.891615
 C    -4.355094    -4.135077    -1.806350
 H    -4.919509    -4.298381    -0.875226
 H    -4.349511    -5.081281    -2.369807
 H    -4.909947    -3.394204    -2.406195
 C    -2.148152    -3.504311    -2.818065
 H    -2.076231    -4.465673    -3.350324
 H    -1.122649    -3.146562    -2.644914
 H    -2.639658    -2.784503    -3.493929
 C    -3.186835    -0.572298     2.744204
 H    -2.284685    -0.934806     3.240637
 C    -4.265361     0.378793     0.809706
 H    -4.216654     0.742098    -0.219682
 C    -4.411694    -0.587943     3.406734
 H    -4.471502    -0.972454     4.427907
 C    -5.499052     0.386244     1.468534
 C    -6.727067     0.925639     0.793256
 H    -6.597234     0.975009    -0.297208
 H    -7.610123     0.304421     1.005634
 H    -6.955598     1.945387     1.145521
 C    -5.556973    -0.107810     2.776984
 H    -6.513412    -0.116520     3.307598
 C    -1.381268     0.341868    -2.194175
 H    -1.049556    -0.683920    -2.358370
 C    -2.081200     2.135143    -0.745378
 H    -2.295359     2.506802     0.261288
 C    -1.468777     1.209952    -3.282856
 H    -1.207328     0.847879    -4.280207
 C    -2.204118     3.006928    -1.828001
 C    -2.689891     4.413158    -1.629417
 H    -2.437671     4.787633    -0.626914
 H    -2.257266     5.099943    -2.370977
 H    -3.786664     4.466764    -1.732765
 C    -1.883233     2.525596    -3.105410
 H    -1.956708     3.195173    -3.967072
