  86
scf done:    -5713.116057
 C     0.682727     1.297770     2.896030
 H     1.159499     0.706191     3.684364
 H     1.294323     2.128665     2.533149
 C    -0.723508     1.364372     2.836992
 H    -1.313820     0.832786     3.590856
 H    -1.217442     2.257455     2.440257
 H     0.044035     1.476143     0.631158
Co     0.008212     0.199487     1.343349
 C     1.760510     1.192721    -1.349084
 C     3.365440     0.562944     0.977083
 C     2.353899    -1.472106    -0.615685
 C    -1.749712    -0.858882    -1.425404
 C    -3.292669    -0.725815     0.914280
 C    -2.467229     1.697393    -0.322472
 P    -1.795781     0.056574     0.177230
 P     1.787743     0.114721     0.139967
 C     0.014593    -1.367581     2.139498
 O     0.019816    -2.389291     2.669926
 C     1.568935     0.662016    -2.626032
 H     1.532495    -0.421753    -2.751878
 C     1.762721     2.598496    -1.198578
 O     1.887486     3.057802     0.057997
 C     1.742988     4.426983     0.320874
 H     2.542742     5.021199    -0.153692
 H     1.812795     4.541143     1.409478
 H     0.761071     4.799470    -0.017542
 C     1.399496     1.487196    -3.738702
 H     1.239977     1.044514    -4.723682
 C     1.619506     3.428867    -2.314648
 H     1.637475     4.512998    -2.201207
 C     1.435609     2.867739    -3.579111
 H     1.315333     3.526053    -4.442816
 C     3.614640    -0.026385     2.221229
 H     2.859086    -0.676365     2.668898
 C     4.342683     1.392142     0.419475
 H     4.177519     1.855895    -0.555377
 C     4.808860     0.199800     2.897038
 H     5.001759    -0.263536     3.865839
 C     5.539857     1.636025     1.087850
 H     6.301123     2.286424     0.653876
 C     5.765709     1.037878     2.325869
Cl     7.251447     1.339119     3.163920
 C     3.601574    -1.582000    -1.246779
 H     4.270504    -0.719443    -1.289865
 C     1.527787    -2.593680    -0.562167
 H     0.559023    -2.517843    -0.069179
 C     4.009705    -2.779296    -1.820460
 H     4.980291    -2.865286    -2.311559
 C     1.925090    -3.803796    -1.129268
 H     1.281794    -4.683898    -1.087423
 C     3.162702    -3.888077    -1.758597
Cl     3.662626    -5.385350    -2.470442
 C    -1.750089    -0.262679    -2.686091
 H    -1.832243     0.821458    -2.769648
 C    -1.667942    -2.266912    -1.353092
 O    -1.656461    -2.782634    -0.107248
 C    -1.832463    -4.157797     0.097200
 H    -2.776531    -4.510212    -0.351211
 H    -1.865163    -4.303295     1.183714
 H    -0.994675    -4.745776    -0.314967
 C    -1.659941    -1.028544    -3.849997
 H    -1.660035    -0.535831    -4.824386
 C    -1.595053    -3.039556    -2.512078
 H    -1.537467    -4.126563    -2.448714
 C    -1.583079    -2.413498    -3.759031
 H    -1.517142    -3.023298    -4.663091
 C    -3.337905    -1.002237     2.280776
 H    -2.481908    -0.743515     2.904531
 C    -4.394382    -1.068606     0.119508
 H    -4.374800    -0.864357    -0.954247
 C    -4.452548    -1.612098     2.853102
 H    -4.483910    -1.832531     3.921263
 C    -5.514162    -1.677696     0.674526
 H    -6.371657    -1.947772     0.055925
 C    -5.534805    -1.948383     2.043942
Cl    -6.922609    -2.714803     2.740873
 C    -3.723278     2.161982     0.079035
 H    -4.379517     1.525903     0.675156
 C    -1.648752     2.558089    -1.067218
 H    -0.651258     2.235049    -1.367637
 C    -4.157282     3.443695    -0.259296
 H    -5.134427     3.803895     0.066435
 C    -2.075678     3.828663    -1.431593
 H    -1.433695     4.480492    -2.026755
 C    -3.334174     4.268819    -1.019808
Cl    -3.868836     5.858397    -1.452498
