  86
scf done:    -3723.897568
 C    -0.509998    -1.047475    -3.127187
 H    -1.143613    -1.921536    -3.307132
 H    -0.986211    -0.096387    -3.386619
 C     0.891365    -1.168548    -3.174289
 H     1.347029    -2.140441    -3.389662
 H     1.512962    -0.309528    -3.441986
 H     0.437263     0.471383    -1.401922
Co     0.284877    -0.997994    -1.253854
 C    -2.465393     0.992726    -0.794448
 O    -2.787079    -1.571862    -0.376630
 O    -1.321220    -0.332760     1.346465
 C     1.765962     0.833242     1.087619
 O     3.086555    -1.412946     0.167309
 O     2.923511     0.577770    -1.404354
 P     2.004134    -0.283192    -0.357670
 P    -1.531702    -0.517463    -0.274732
 C     0.512703    -2.669236    -0.812967
 O     0.774466    -3.738488    -0.474176
 C    -1.729344     1.981847    -1.452584
 H    -0.665417     1.797042    -1.621157
 C    -3.844359     1.240362    -0.576725
 O    -4.560148     0.328087     0.104164
 C    -5.931676     0.514418     0.295590
 H    -6.148893     1.414180     0.898593
 H    -6.290695    -0.370795     0.836370
 H    -6.473716     0.588730    -0.663184
 C    -2.297273     3.175123    -1.894629
 H    -1.682786     3.917273    -2.408286
 C    -4.422535     2.431235    -1.037455
 H    -5.484048     2.619271    -0.878899
 C    -3.654039     3.391164    -1.690662
 H    -4.129895     4.311401    -2.038740
 C    -2.644652    -2.944742    -0.027465
 H    -1.687876    -3.089770     0.505583
 C    -2.646820    -3.785509    -1.288477
 H    -1.825163    -3.485032    -1.951352
 H    -3.595152    -3.647618    -1.830360
 H    -2.527141    -4.852416    -1.048162
 C    -3.784615    -3.298460     0.908964
 H    -3.748587    -2.686212     1.820942
 H    -4.749065    -3.115075     0.410803
 H    -3.736657    -4.358874     1.198963
 C    -2.336231    -0.028559     2.305589
 H    -3.312237    -0.323313     1.888559
 C    -2.338690     1.460459     2.597711
 H    -2.556376     2.042310     1.691741
 H    -1.353277     1.771078     2.973743
 H    -3.100294     1.703422     3.354918
 C    -2.038526    -0.860559     3.537243
 H    -2.018570    -1.931290     3.286773
 H    -1.056030    -0.587063     3.950378
 H    -2.801636    -0.697174     4.313440
 C     1.629544     0.287102     2.365347
 H     1.690339    -0.793922     2.488201
 C     1.530271     2.217664     0.934071
 O     1.549050     2.708946    -0.319366
 C     1.232347     4.053620    -0.540316
 H     0.215323     4.296332    -0.186305
 H     1.277905     4.206078    -1.626253
 H     1.956258     4.732263    -0.055616
 C     1.390988     1.077802     3.487341
 H     1.314045     0.619163     4.475175
 C     1.283168     3.017503     2.056097
 H     1.120360     4.089000     1.941936
 C     1.236605     2.450106     3.327711
 H     1.051273     3.090879     4.193183
 C     3.886586    -1.629543     1.322798
 H     3.844288    -0.741185     1.976827
 C     5.326803    -1.855588     0.901237
 H     5.764840    -0.954425     0.451754
 H     5.380984    -2.673863     0.167393
 H     5.938695    -2.129422     1.773820
 C     3.328174    -2.837845     2.055064
 H     2.270086    -2.695658     2.318117
 H     3.381191    -3.722995     1.403989
 H     3.894920    -3.038805     2.976593
 C     4.324965     0.790611    -1.348441
 H     4.811611    -0.190405    -1.214117
 C     4.727779     1.708631    -0.207823
 H     4.443014     1.295147     0.770438
 H     4.238345     2.687722    -0.314450
 H     5.818179     1.859425    -0.208594
 C     4.716082     1.346298    -2.702797
 H     4.401932     0.658813    -3.500790
 H     4.222964     2.316004    -2.871131
 H     5.805157     1.488873    -2.767398
