  90
scf done:    -4176.108645
 C    -0.363327     1.007793    -3.661852
 H    -0.969799     0.399580    -4.339608
 H    -0.819649     1.962124    -3.386017
 C     1.030435     0.852112    -3.630355
 H     1.515005     0.119305    -4.283130
 H     1.673924     1.681033    -3.322504
 H     0.306765     1.288459    -1.330118
Co     0.176954    -0.027107    -2.000639
 O    -1.482628     0.706250     0.654325
 O    -2.760609     0.933864    -1.542979
 O    -2.256089    -1.352785    -0.465788
 O     1.929439    -0.401492     0.725347
 O     2.813465    -1.590786    -1.365656
 O     3.045230     0.903401    -0.996412
 P     1.915137    -0.275662    -0.923957
 P    -1.534940     0.056941    -0.867134
 C    -0.013325    -1.658096    -2.646780
 O    -0.140409    -2.731290    -3.020717
 C    -1.033301     1.947667     0.999921
 C    -1.072348     3.035796     0.127088
 H    -1.473018     2.910528    -0.880007
 C    -0.563674     2.099996     2.305796
 H    -0.548849     1.231276     2.964173
 C    -0.615599     4.292908     0.544223
 C    -0.616036     5.443345    -0.419442
 H     0.205006     5.341203    -1.148105
 H    -1.554287     5.486487    -0.992516
 H    -0.483858     6.403627     0.097995
 C    -0.129548     3.351165     2.725447
 H     0.236971     3.477923     3.746855
 C    -0.149238     4.440450     1.853635
 H     0.198242     5.419143     2.194081
 C    -4.084698     0.941254    -1.172105
 C    -4.494426     1.336856     0.101422
 H    -3.757262     1.644395     0.842227
 C    -5.017938     0.556588    -2.133513
 H    -4.660321     0.264879    -3.122741
 C    -5.850437     1.303616     0.417026
 H    -6.170982     1.593717     1.420078
 C    -6.371726     0.538882    -1.808747
 H    -7.102831     0.232605    -2.560801
 C    -6.791822     0.902277    -0.529703
 H    -7.852824     0.877665    -0.272168
 C    -3.257220    -1.626631     0.440991
 C    -4.455958    -2.141017    -0.049009
 H    -4.577025    -2.265104    -1.125797
 C    -3.054729    -1.461775     1.810019
 H    -2.100231    -1.084041     2.170846
 C    -5.478121    -2.459587     0.839919
 H    -6.423385    -2.848093     0.454221
 C    -4.085504    -1.787629     2.688870
 H    -3.930125    -1.657078     3.762613
 C    -5.299663    -2.278941     2.211565
 H    -6.104278    -2.526886     2.907294
 C     1.190929    -1.263181     1.480656
 C     0.571054    -2.396395     0.952475
 H     0.667878    -2.632223    -0.107626
 C     1.115453    -0.983938     2.845965
 H     1.633710    -0.103305     3.228582
 C    -0.166517    -3.251361     1.779297
 C    -0.898299    -4.419274     1.189186
 H    -0.438919    -4.750376     0.247252
 H    -0.928415    -5.271254     1.883628
 H    -1.941118    -4.137911     0.965780
 C     0.401279    -1.846091     3.672458
 H     0.346420    -1.640404     4.744449
 C    -0.240083    -2.967406     3.147085
 H    -0.807601    -3.630440     3.804630
 C     4.103204    -1.806463    -0.944234
 C     4.355726    -2.350086     0.314479
 H     3.521619    -2.604108     0.970277
 C     5.149981    -1.484858    -1.807171
 H     4.915100    -1.055563    -2.782423
 C     5.674790    -2.558831     0.712263
 H     5.876238    -2.979914     1.699984
 C     6.464354    -1.703357    -1.401075
 H     7.286213    -1.450603    -2.075126
 C     6.731061    -2.235070    -0.138859
 H     7.762569    -2.401055     0.179472
 C     3.579380     1.624003     0.048912
 C     4.885979     1.362896     0.453527
 H     5.446226     0.562433    -0.031628
 C     2.826343     2.628270     0.653738
 H     1.799333     2.807230     0.329159
 C     5.446334     2.127100     1.475091
 H     6.471570     1.924692     1.794111
 C     3.397221     3.381615     1.676606
 H     2.804291     4.166040     2.151657
 C     4.706660     3.136669     2.089871
 H     5.149926     3.731784     2.891507
