  70
scf done:    -3265.989588
 C     3.303819    -1.581644     0.777632
 H     3.995698    -1.987567     0.030749
 H     3.721370    -0.744976     1.347738
 C     2.369953    -2.451928     1.395234
 H     2.354214    -3.507455     1.101282
 H     2.082721    -2.283558     2.437404
 H     1.405460    -0.254963     1.226686
Co     1.451368    -1.208681     0.105576
 C     0.304516     1.913573    -0.113065
 C     3.178560     1.633343    -0.533237
 C     1.338794     0.908623    -2.596674
 C    -1.851345    -0.918368    -0.693274
 C    -1.321969    -3.184933     0.813629
 C    -1.198785    -0.624139     2.175717
 P    -0.648152    -1.464452     0.618432
 P     1.572494     0.746040    -0.765929
 C     1.633923    -2.202878    -1.320043
 O     1.817278    -2.828852    -2.271499
 C    -0.874383     2.158282    -0.822150
 H    -1.009091     1.718640    -1.811575
 C     0.416879     2.466762     1.183159
 O     1.551572     2.196434     1.859405
 C     1.702140     2.648464     3.175087
 H     1.694354     3.750919     3.233609
 H     2.676223     2.279839     3.520489
 H     0.915153     2.246566     3.836064
 C    -1.909133     2.930548    -0.293064
 H    -2.812994     3.098149    -0.882136
 C    -0.617993     3.238229     1.721026
 H    -0.526919     3.661617     2.721164
 C    -1.776875     3.469267     0.980141
 H    -2.576080     4.076812     1.411893
 H     3.401231     1.560700     0.538526
 C     4.302311     1.027919    -1.360057
 H     4.166883     1.198978    -2.438633
 H     4.365820    -0.058003    -1.198342
 H     3.037900     2.702817    -0.759845
 H     5.271264     1.467884    -1.078391
 H     0.346849     0.488493    -2.822804
 C     1.508479     2.286357    -3.216369
 H     2.533480     2.666724    -3.094816
 H     0.828915     3.024375    -2.764753
 H     2.053233     0.187712    -3.027467
 H     1.297307     2.256398    -4.296968
 C    -1.468150    -1.196274    -2.008818
 H    -0.514524    -1.697603    -2.177100
 C    -3.104257    -0.294068    -0.504358
 O    -3.512887    -0.079934     0.761977
 C    -4.693056     0.628831     1.004938
 H    -4.653521     1.645085     0.576440
 H    -4.788074     0.708902     2.095518
 H    -5.579839     0.104408     0.607558
 C    -2.247021    -0.847353    -3.111253
 H    -1.904545    -1.085425    -4.120265
 C    -3.879964     0.087112    -1.606757
 H    -4.832799     0.594357    -1.456064
 C    -3.450346    -0.183840    -2.903590
 H    -4.071623     0.119835    -3.749666
 H    -1.104584    -3.684887    -0.144609
 C    -0.768338    -3.993624     1.973967
 H    -1.058587    -3.563399     2.944186
 H     0.328126    -4.042905     1.940533
 H    -2.419601    -3.097773     0.883338
 H    -1.156492    -5.023669     1.945635
 H    -2.178332    -1.034907     2.457217
 C    -0.217755    -0.697907     3.334298
 H     0.754703    -0.269971     3.050746
 H    -0.036985    -1.728692     3.671237
 H    -1.374844     0.426440     1.901118
 H    -0.611266    -0.132634     4.194449
