  62
scf done:    -3409.701377
 C    -0.519517    -4.009072    -1.137028
 H    -0.896932    -4.770947    -0.447795
 H    -1.217379    -3.744669    -1.935562
 C     0.867903    -3.856181    -1.321017
 H     1.560060    -4.508276    -0.778313
 H     1.256723    -3.476091    -2.270324
 H    -0.119919    -1.655879    -1.469985
Co     0.125320    -2.344400    -0.187695
 O    -1.518372     0.227007    -0.668074
 O    -2.996212    -1.865966    -0.548040
 O    -2.207460    -0.848920     1.534612
 O     1.341788     0.463079     0.504819
 O     3.110188    -1.238044     0.570188
 O     2.210741    -0.560099    -1.704392
 P     1.686965    -0.981562    -0.223312
 P    -1.619232    -1.262728     0.061759
 C     0.314292    -3.082405     1.393676
 O     0.427928    -3.562780     2.430639
 C    -2.479446     1.196363    -0.575792
 C    -2.311674     2.231209     0.340452
 H    -1.427359     2.222120     0.981559
 C    -3.577937     1.176302    -1.437080
 H    -3.674404     0.360269    -2.154766
 C    -3.246151     3.269402     0.421763
 C    -3.053426     4.378590     1.415001
 H    -3.135873     4.004487     2.448332
 H    -2.054780     4.831491     1.314823
 H    -3.802799     5.171692     1.285086
 C    -4.512501     2.203947    -1.355915
 H    -5.376345     2.202334    -2.025238
 C    -4.351038     3.240039    -0.435661
 H    -5.090424     4.043575    -0.386986
 C    -4.264768    -1.818998     0.080035
 H    -4.253136    -2.368209     1.032908
 H    -4.588644    -0.785525     0.271394
 H    -4.971904    -2.300445    -0.609035
 C    -1.333947    -0.393284     2.549816
 H    -1.067387    -1.222514     3.223693
 H    -0.409163     0.039184     2.135978
 H    -1.864752     0.379210     3.124325
 C     1.868438     1.677217     0.151144
 C     3.038299     2.126320     0.757658
 H     3.526686     1.477189     1.487810
 C     1.201341     2.452472    -0.797134
 H     0.291914     2.060024    -1.254088
 C     3.575206     3.373530     0.418911
 C     4.823362     3.869627     1.090072
 H     5.566816     3.066250     1.201605
 H     5.286698     4.690132     0.524269
 H     4.602020     4.248270     2.101727
 C     1.735214     3.691707    -1.137923
 H     1.229384     4.309809    -1.883657
 C     2.910378     4.147431    -0.539587
 H     3.319638     5.121515    -0.820108
 C     3.710218    -2.513537     0.515771
 H     3.069541    -3.280096     0.980621
 H     3.930418    -2.822692    -0.520168
 H     4.653792    -2.453081     1.075094
 C     3.442020     0.062867    -2.021561
 H     3.284228     1.133526    -2.218606
 H     4.172482    -0.045342    -1.206572
 H     3.834772    -0.419657    -2.928611
