  86
scf done:    -4272.003634
 C    -0.693062    -1.235412    -2.997763
 H    -1.167211    -2.155803    -2.642895
 H    -1.300338    -0.680486    -3.721440
 C     0.710738    -1.141046    -3.068103
 H     1.336308    -1.985139    -2.762666
 H     1.163742    -0.507612    -3.838065
 H     0.198100    -1.412384    -0.766135
Co     0.031505    -0.129249    -1.457017
 C     1.682228    -0.664130     1.459305
 C     3.330026    -0.726925    -0.899983
 C     2.485831     1.714211     0.147700
 C    -1.705817     0.343207     1.488117
 C    -3.204654     0.864905    -0.863004
 C    -2.579060    -1.809783    -0.135142
 P    -1.776637    -0.148973    -0.285228
 P     1.793886     0.044358    -0.238558
 C    -0.062401     1.459567    -2.198130
 O    -0.124302     2.496939    -2.690858
 C     1.680085     0.160591     2.586407
 H     1.778518     1.239129     2.454580
 C     1.547787    -2.056730     1.654927
 O     1.571831    -2.827367     0.546293
 C     1.630064    -4.221006     0.667913
 H     2.516352    -4.540471     1.243070
 H     1.701470    -4.617469    -0.352484
 H     0.724976    -4.629762     1.150255
 C     1.559788    -0.360034     3.873499
 H     1.557795     0.312627     4.732797
 C     1.430400    -2.583475     2.944369
 H     1.336734    -3.659221     3.093494
 C     1.438487    -1.732714     4.048508
 H     1.346866    -2.156794     5.051284
 C     4.188936    -1.535916    -0.149666
 H     3.947719    -1.775467     0.887636
 C     3.691206    -0.402207    -2.213115
 H     3.034125     0.239194    -2.803625
 C     5.371344    -2.027990    -0.699081
 H     6.048853    -2.662212    -0.124264
 C     4.872342    -0.876959    -2.773371
 H     5.162645    -0.627860    -3.795578
 C     5.695878    -1.693940    -2.007563
 F     6.824060    -2.162294    -2.537997
 C     1.626340     2.816095     0.163690
 H     0.568663     2.665169    -0.053023
 C     3.840964     1.914387     0.446860
 H     4.532962     1.069947     0.437331
 C     2.097924     4.091486     0.467728
 H     1.440020     4.962416     0.469939
 C     4.326914     3.181322     0.752809
 H     5.380647     3.350484     0.981900
 C     3.445632     4.256903     0.757380
 F     3.906053     5.472779     1.043302
 C    -1.792506    -0.576322     2.533539
 H    -1.924730    -1.634759     2.302701
 C    -1.541246     1.707551     1.807771
 O    -1.473955     2.554204     0.758659
 C    -1.627686     3.931862     0.963426
 H    -2.579854     4.155668     1.473953
 H    -1.635130     4.391584    -0.032973
 H    -0.794951     4.356223     1.550238
 C    -1.730545    -0.166908     3.865477
 H    -1.799183    -0.907222     4.664598
 C    -1.490192     2.124909     3.139190
 H    -1.378639     3.181785     3.382809
 C    -1.584865     1.182534     4.163567
 H    -1.543139     1.516782     5.203002
 C    -3.335550     1.123036    -2.230165
 H    -2.582170     0.738674    -2.918513
 C    -4.179441     1.367109     0.009574
 H    -4.098740     1.176133     1.082649
 C    -4.406742     1.863496    -2.724679
 H    -4.513902     2.072355    -3.790519
 C    -5.253052     2.113155    -0.466666
 H    -6.015787     2.513182     0.204152
 C    -5.351970     2.352257    -1.833247
 F    -6.375579     3.068407    -2.293689
 C    -3.970168    -1.971458    -0.107299
 H    -4.624484    -1.103839    -0.203449
 C    -1.777827    -2.953958    -0.027822
 H    -0.691893    -2.843880    -0.071625
 C    -4.547747    -3.231202     0.031926
 H    -5.631156    -3.363108     0.046450
 C    -2.339066    -4.218807     0.121231
 H    -1.720831    -5.115045     0.201185
 C    -3.722731    -4.341805     0.149088
 F    -4.266958    -5.549249     0.282996
