 106
scf done:    -4261.421427
 C     1.960894    -3.020692    -1.755122
 H     2.804721    -2.872669    -2.436126
 H     2.227542    -3.517633    -0.816387
 C     0.651295    -3.153024    -2.255492
 H     0.475200    -3.123530    -3.335451
 H    -0.087198    -3.732856    -1.697407
 H     0.457063    -1.896121    -0.185423
Co     0.917084    -1.305758    -1.459361
 C     2.798151    -1.224465     1.406011
 O     3.871121    -0.472999    -0.983698
 O     2.314135     1.084115     0.353078
 C    -1.522085     0.964780    -2.137558
 O    -2.304725    -1.428434    -1.445844
 O    -1.166345    -0.009174     0.422443
 P    -0.964951    -0.478098    -1.149381
 P     2.383563    -0.483078    -0.224322
 C     1.290714    -0.536405    -2.995279
 O     1.508228    -0.043622    -4.008372
 H     2.841165    -2.310205     1.233565
 H     3.808857    -0.882182     1.675242
 C     1.815687    -0.870342     2.483175
 C     2.035220     0.255890     3.284411
 H     2.930424     0.861194     3.125032
 C     0.658670    -1.627764     2.690041
 H     0.483843    -2.508422     2.065344
 C     1.121097     0.598549     4.276411
 H     1.308056     1.469577     4.909816
 C    -0.281132    -1.284816     3.667956
 C    -1.552117    -2.065386     3.830523
 H    -2.371096    -1.589539     3.264389
 H    -1.446204    -3.095727     3.461970
 H    -1.867528    -2.109094     4.883229
 C    -0.028541    -0.164552     4.466614
 H    -0.748322     0.115841     5.240408
 C     5.056654    -0.124091    -0.393016
 C     5.990048    -1.124949    -0.122285
 H     5.738286    -2.158993    -0.366824
 C     5.356106     1.205173    -0.092526
 H     4.626771     1.986084    -0.309334
 C     7.214672    -0.794720     0.449922
 H     7.937406    -1.588326     0.659371
 C     6.585167     1.517679     0.483063
 H     6.809454     2.561928     0.718057
 C     7.536828     0.531040     0.764968
 C     8.871514     0.884883     1.354413
 H     9.255683     0.078634     1.996342
 H     8.815735     1.803239     1.956609
 H     9.620955     1.057179     0.563611
 C     1.733078     2.120190    -0.308887
 C     0.910945     2.978051     0.422948
 H     0.768602     2.779791     1.485708
 C     1.963960     2.367402    -1.662105
 H     2.639797     1.722963    -2.226107
 C     0.298319     4.053866    -0.207253
 H    -0.344486     4.717579     0.378186
 C     1.323865     3.439495    -2.284562
 H     1.494497     3.608758    -3.351057
 C     0.472093     4.294444    -1.578393
 C    -0.266191     5.408173    -2.261185
 H    -0.265984     6.325879    -1.653861
 H    -1.320137     5.129381    -2.431792
 H     0.174764     5.645825    -3.239406
 H    -0.718506     1.705979    -2.005527
 H    -1.453399     0.607255    -3.178280
 C    -2.865355     1.558910    -1.843563
 C    -4.038676     0.986174    -2.349080
 H    -3.975940     0.103480    -2.988792
 C    -2.964319     2.684256    -1.022907
 H    -2.046868     3.122872    -0.623904
 C    -5.275623     1.528519    -2.017025
 H    -6.189581     1.078632    -2.412935
 C    -4.199908     3.235250    -0.670346
 C    -4.261594     4.413234     0.257457
 H    -3.594645     5.223554    -0.076288
 H    -5.280284     4.819747     0.330388
 H    -3.938625     4.120339     1.269659
 C    -5.357934     2.640688    -1.179319
 H    -6.335740     3.054992    -0.918413
 C    -2.435259    -2.723607    -1.033734
 C    -2.943542    -3.648681    -1.946117
 H    -3.189490    -3.311143    -2.954563
 C    -2.110002    -3.127888     0.259845
 H    -1.727490    -2.400709     0.975592
 C    -3.106649    -4.975207    -1.566110
 H    -3.498401    -5.693200    -2.292192
 C    -2.271789    -4.464327     0.620522
 H    -2.006074    -4.774665     1.635048
 C    -2.767866    -5.413081    -0.277934
 C    -2.950481    -6.849466     0.118882
 H    -4.018197    -7.120239     0.161110
 H    -2.517148    -7.051097     1.108559
 H    -2.473173    -7.529557    -0.603742
 C    -2.237158     0.473640     1.125354
 C    -3.555072     0.063981     0.915378
 H    -3.793048    -0.642190     0.123035
 C    -1.946713     1.373542     2.148876
 H    -0.905433     1.636712     2.329191
 C    -4.569675     0.605541     1.698120
 H    -5.600177     0.295735     1.504687
 C    -2.973880     1.894260     2.929672
 H    -2.728459     2.598251     3.730183
 C    -4.308200     1.534034     2.711907
 C    -5.424928     2.144363     3.507541
 H    -5.911232     2.959234     2.944126
 H    -5.062055     2.570664     4.453951
 H    -6.205372     1.405517     3.743574
