 116
scf done:    -4838.846591
 C     0.489882     1.523306    -3.147474
 H     1.016059     2.481856    -3.175793
 H     0.999000     0.723109    -3.694301
 C    -0.907084     1.483405    -2.995238
 H    -1.471246     2.415906    -2.896780
 H    -1.494647     0.650591    -3.389928
 H     0.237784    -0.404003    -1.777151
Co     0.002481     0.968138    -1.264901
 C     3.128342    -0.107848    -1.826758
 C     3.036058     1.472688     0.454878
 C     1.663839    -1.124640     0.594198
 C    -2.115668     0.715813     1.389411
 C    -3.396238     0.459830    -1.144786
 C    -1.728789    -1.785971    -0.215852
 P    -1.771715     0.067678    -0.325661
 P     1.895079     0.339914    -0.497051
 C    -0.071142     2.492975    -0.422671
 O    -0.084100     3.452095     0.222963
 H     2.714593    -0.965309    -2.368148
 H     3.071402     0.770756    -2.485309
 C     4.538090    -0.317619    -1.368164
 C     5.450071     0.746019    -1.408171
 H     5.129692     1.704637    -1.823186
 C     4.976860    -1.533410    -0.829159
 H     4.284785    -2.372913    -0.782098
 C     6.744610     0.618652    -0.912976
 H     7.449304     1.451735    -0.931494
 C     6.269919    -1.683666    -0.335418
 H     6.614204    -2.629305     0.087899
 C     7.136654    -0.599233    -0.374242
 F     8.372401    -0.732200     0.118170
 C     3.870646     1.087568     1.526220
 O     3.877709    -0.214397     1.855942
 C     4.765816    -0.701907     2.816596
 H     4.596655    -1.785300     2.863734
 H     5.815301    -0.511931     2.533049
 H     4.576277    -0.269164     3.815064
 C     3.165658     2.798774    -0.000929
 O     2.548864     3.092909    -1.163984
 C     2.420015     4.428951    -1.562416
 H     1.785599     4.425086    -2.458104
 H     3.395744     4.877148    -1.819280
 H     1.930529     5.034609    -0.782079
 C     3.950840     3.742402     0.675215
 H     4.009484     4.770996     0.322822
 C     4.669416     2.018403     2.202167
 H     5.291368     1.707012     3.040118
 C     4.685048     3.342292     1.782257
 H     5.304978     4.069638     2.311909
 C     1.751603    -2.464080     0.183629
 O     2.006872    -2.695954    -1.126518
 C     2.172703    -4.011703    -1.574153
 H     2.379899    -3.949105    -2.650617
 H     3.024293    -4.510358    -1.077834
 H     1.259942    -4.609371    -1.417677
 C     1.256349    -0.877920     1.918872
 O     1.058860     0.419394     2.222068
 C     0.866933     0.813389     3.548270
 H     0.817757     1.909438     3.539404
 H     1.705768     0.493699     4.190796
 H    -0.076762     0.417010     3.963138
 C     1.096461    -1.910326     2.844701
 H     0.817024    -1.695740     3.875642
 C     1.598262    -3.509898     1.103250
 H     1.689763    -4.546343     0.783736
 C     1.291641    -3.222512     2.426589
 H     1.177223    -4.041628     3.140883
 H    -1.518987     0.092010     2.063318
 H    -1.664788     1.714727     1.388828
 C    -3.540524     0.822632     1.843932
 C    -3.982356     2.015964     2.427803
 H    -3.276247     2.842935     2.542882
 C    -4.475119    -0.209566     1.680522
 H    -4.177517    -1.135215     1.186959
 C    -5.298121     2.179986     2.857223
 H    -5.642094     3.110204     3.313409
 C    -5.793624    -0.064129     2.101391
 H    -6.526318    -0.861709     1.964445
 C    -6.190137     1.130468     2.689049
 F    -7.456351     1.274693     3.090780
 C    -4.342471    -0.453699    -1.650687
 O    -4.171353    -1.755015    -1.351273
 C    -4.916702    -2.736596    -2.006281
 H    -4.495487    -3.700792    -1.691619
 H    -5.984913    -2.703195    -1.727127
 H    -4.832063    -2.648350    -3.103522
 C    -3.702473     1.830526    -1.281831
 O    -2.861655     2.681623    -0.664575
 C    -3.108256     4.058608    -0.698762
 H    -2.292509     4.527310    -0.135595
 H    -4.074536     4.305471    -0.225935
 H    -3.099889     4.448852    -1.731409
 C    -4.822037     2.274549    -1.992703
 H    -5.028998     3.338209    -2.097791
 C    -5.455929    -0.019458    -2.383372
 H    -6.164974    -0.741275    -2.786373
 C    -5.678439     1.338915    -2.557704
 H    -6.551478     1.675858    -3.121459
 C    -1.541792    -2.463904    -1.439558
 O    -1.599259    -1.705277    -2.548741
 C    -0.957728    -2.136738    -3.715814
 H    -0.938495    -1.276449    -4.397201
 H     0.078588    -2.449267    -3.506033
 H    -1.500497    -2.964819    -4.205033
 C    -1.825288    -2.583271     0.941692
 O    -2.047268    -1.962367     2.119334
 C    -2.332681    -2.705459     3.266936
 H    -2.563971    -1.976866     4.055050
 H    -1.471977    -3.318402     3.584494
 H    -3.209220    -3.360263     3.120550
 C    -1.713992    -3.979837     0.876225
 H    -1.780851    -4.577108     1.783732
 C    -1.392249    -3.851563    -1.508380
 H    -1.250378    -4.342143    -2.471215
 C    -1.487579    -4.601680    -0.342028
 H    -1.391224    -5.689527    -0.384028
