  94
scf done:    -4104.271908
 C     0.503738    -1.800518    -1.993857
 H     1.558485    -2.051448    -1.848797
 H    -0.182652    -2.649264    -2.057320
 C     0.142149    -0.563296    -2.504138
 H     0.912221     0.169214    -2.758538
 H    -0.826028    -0.418859    -2.990587
 H    -0.339598     0.898023    -0.693370
Co    -0.116013    -0.547435    -0.437023
 C    -2.805730     0.752101     1.138822
 O    -2.731262     0.774240    -1.587387
 O    -3.256208    -1.385513    -0.263477
 C     2.840956    -0.285918     1.382858
 O     2.494944     1.016573    -1.018050
 O     1.352174     1.805403     1.186028
 P     1.581370     0.426741     0.240889
 P    -2.142104    -0.135191    -0.322560
 C    -0.104409    -1.850702     0.709555
 O    -0.067125    -2.711355     1.475919
 H    -2.309179     1.734558     1.150885
 H    -3.884276     0.905972     0.986853
 C    -2.525125    -0.035259     2.382840
 C    -3.469401    -0.932883     2.889104
 H    -4.445039    -1.018220     2.405241
 C    -1.270859     0.042566     2.997814
 H    -0.521259     0.720382     2.586631
 C    -3.158874    -1.722778     3.993791
 H    -3.903734    -2.416997     4.390817
 C    -0.936845    -0.757360     4.092338
 C     0.443761    -0.711231     4.679280
 H     0.977012     0.204145     4.384526
 H     0.423732    -0.759526     5.778347
 H     1.038381    -1.571435     4.327646
 C    -1.902557    -1.639690     4.588990
 H    -1.664115    -2.273802     5.447474
 C    -3.956275     1.388532    -1.592966
 C    -3.997364     2.777607    -1.465658
 H    -3.058493     3.317850    -1.332386
 C    -5.133698     0.654961    -1.750440
 H    -5.085132    -0.430693    -1.837976
 C    -5.223752     3.435910    -1.499894
 H    -5.254165     4.523662    -1.399961
 C    -6.355397     1.325723    -1.780327
 H    -7.277574     0.752652    -1.903201
 C    -6.406881     2.713542    -1.656392
 H    -7.368028     3.231622    -1.681763
 C    -3.016760    -2.547890    -0.944527
 C    -2.819167    -3.719227    -0.214839
 H    -2.834318    -3.667687     0.875289
 C    -2.983203    -2.564923    -2.340424
 H    -3.133505    -1.635849    -2.893777
 C    -2.584765    -4.914605    -0.889790
 H    -2.422984    -5.831669    -0.318318
 C    -2.744104    -3.766390    -3.004912
 H    -2.710335    -3.778805    -4.096866
 C    -2.544153    -4.943231    -2.284297
 H    -2.354535    -5.882238    -2.808774
 H     3.411717     0.544173     1.821682
 H     2.250591    -0.747275     2.190327
 C     3.745676    -1.282329     0.715136
 C     3.296422    -2.568652     0.388041
 H     2.290578    -2.885236     0.666251
 C     5.054529    -0.923431     0.381949
 H     5.416160     0.075270     0.642464
 C     4.138535    -3.451749    -0.280625
 H     3.779651    -4.451968    -0.535043
 C     5.915218    -1.802112    -0.285320
 C     7.316219    -1.377960    -0.616370
 H     7.934386    -1.307914     0.293631
 H     7.804066    -2.089806    -1.297048
 H     7.324667    -0.383710    -1.088804
 C     5.435170    -3.070647    -0.622429
 H     6.087931    -3.771081    -1.150619
 C     3.717801     1.624426    -1.011980
 C     4.592747     1.276802    -2.043690
 H     4.270593     0.527710    -2.768874
 C     4.090539     2.574284    -0.058797
 H     3.394150     2.854595     0.731464
 C     5.849387     1.868122    -2.111318
 H     6.530223     1.592461    -2.920406
 C     5.359618     3.149883    -0.131762
 H     5.652461     3.888668     0.618177
 C     6.243728     2.801616    -1.150379
 H     7.233313     3.260557    -1.201484
 C     0.483929     2.813508     0.891484
 C     0.318323     3.301680    -0.408712
 H     0.891544     2.869249    -1.229454
 C    -0.227355     3.383058     1.950981
 H    -0.075160     2.994149     2.959157
 C    -0.573299     4.348655    -0.637928
 H    -0.697380     4.726554    -1.655662
 C    -1.113890     4.428428     1.708030
 H    -1.669237     4.865790     2.540953
 C    -1.296030     4.912568     0.412035
 H    -1.993288     5.731800     0.223957
