 108
scf done:    -3937.767035
 C    -0.938434    -0.409696    -3.199769
 H    -1.338722    -1.396533    -3.454699
 H    -1.668920     0.398026    -3.323656
 C     0.428922    -0.138292    -3.425890
 H     1.064913    -0.927663    -3.841230
 H     0.737936     0.871868    -3.708511
 H    -0.228667     1.117214    -1.513341
Co     0.062066    -0.325272    -1.447001
 C    -2.668201     1.323596    -0.594396
 C    -3.112639    -1.540645    -0.892417
 C    -1.905717    -0.492770     1.544199
 C     2.150069    -0.376438     1.283824
 C     3.455018     0.565230    -1.121377
 C     1.359397     2.275788     0.209411
 P     1.755951     0.525114    -0.342931
 P    -1.808302    -0.317296    -0.311184
 C     0.571726    -1.989367    -1.290348
 O     0.964492    -3.067958    -1.165897
 H    -2.031994     2.067751    -0.091466
 H    -2.534675     1.498909    -1.670832
 C    -4.104922     1.477484    -0.211604
 C    -5.113719     1.288893    -1.166314
 H    -4.836537     1.076131    -2.202141
 C    -4.493369     1.779046     1.101067
 H    -3.731207     1.959414     1.862476
 C    -6.461308     1.352741    -0.824286
 H    -7.248860     1.199311    -1.564220
 C    -5.836132     1.847906     1.462600
 H    -6.143158     2.077751     2.484484
 C    -6.806644     1.622010     0.494191
 F    -8.093622     1.681045     0.833883
 H    -3.490554    -1.044056    -1.806621
 C    -4.309245    -1.771953     0.039130
 H    -4.740802    -0.826555     0.390079
 H    -3.970305    -2.314879     0.938044
 C    -5.385852    -2.603698    -0.652089
 H    -6.235293    -2.757746     0.033167
 H    -5.781994    -2.033163    -1.511743
 C    -4.836172    -3.940102    -1.134123
 H    -5.612371    -4.508246    -1.672238
 H    -4.556308    -4.551179    -0.256643
 C    -3.609257    -3.743221    -2.015844
 H    -3.912416    -3.244884    -2.954905
 H    -3.181352    -4.716283    -2.306807
 C    -2.543623    -2.892252    -1.332001
 H    -2.146126    -3.434473    -0.456675
 H    -1.693718    -2.742310    -2.008153
 H    -2.975768    -0.422947     1.808081
 C    -1.167778     0.623668     2.281914
 H    -1.565885     1.610810     1.999470
 H    -0.114314     0.622474     1.969075
 C    -1.236831     0.453395     3.795751
 H    -0.670722     1.260554     4.289292
 H    -2.285839     0.560854     4.127209
 C    -0.711477    -0.910882     4.225274
 H    -0.795220    -1.030525     5.317423
 H     0.365465    -0.977439     3.986818
 C    -1.454075    -2.030497     3.507156
 H    -2.511213    -2.029041     3.829348
 H    -1.043749    -3.012457     3.792792
 C    -1.397210    -1.866412     1.991760
 H    -0.360324    -2.007396     1.641627
 H    -1.979884    -2.665132     1.510624
 H     2.072910     0.347465     2.105071
 H     1.310559    -1.071651     1.402825
 C     3.442156    -1.126698     1.416813
 C     3.657701    -2.337855     0.743120
 H     2.867925    -2.758491     0.117615
 C     4.470614    -0.639667     2.233523
 H     4.319516     0.289552     2.789795
 C     4.863664    -3.023793     0.857286
 H     5.034049    -3.965843     0.333050
 C     5.683296    -1.312533     2.360495
 H     6.485078    -0.933979     2.996889
 C     5.867534    -2.497777     1.660861
 F     7.025176    -3.148682     1.772453
 H     3.778011    -0.481020    -0.968951
 C     4.484714     1.459206    -0.428239
 H     4.472680     1.310114     0.659238
 H     4.226079     2.516615    -0.606545
 C     5.885824     1.196414    -0.970909
 H     6.614716     1.851221    -0.465665
 H     6.174830     0.159071    -0.723200
 C     5.938876     1.400690    -2.480059
 H     6.943831     1.166718    -2.867472
 H     5.760122     2.468213    -2.704960
 C     4.884549     0.557536    -3.187018
 H     5.136138    -0.511661    -3.064136
 H     4.895866     0.754924    -4.271372
 C     3.483206     0.797061    -2.630820
 H     3.162059     1.827093    -2.864166
 H     2.764607     0.128170    -3.115822
 H     0.293687     2.162744     0.471418
 C     1.402820     3.243262    -0.977080
 H     0.891281     2.790965    -1.841044
 H     2.450063     3.416182    -1.277378
 C     0.758812     4.577539    -0.616482
 H     0.818416     5.269483    -1.472151
 H    -0.317454     4.415306    -0.423167
 C     1.407820     5.194851     0.616308
 H     0.901658     6.134191     0.892083
 H     2.452888     5.463917     0.377697
 C     1.400605     4.222954     1.790212
 H     0.356608     4.038315     2.103760
 H     1.911734     4.665396     2.660730
 C     2.051045     2.888582     1.427441
 H     3.121070     3.049042     1.224558
 H     1.994641     2.217416     2.298461
