  96
scf done:    -4080.428427
 C     0.904967     3.218220    -1.646762
 H     1.361593     3.990968    -1.017304
 H     1.522097     2.924582    -2.501790
 C    -0.502174     3.154927    -1.757679
 H    -1.127653     3.862504    -1.205809
 H    -0.947832     2.808458    -2.695405
 H     0.356207     0.896639    -1.923865
Co     0.197865     1.623739    -0.633157
 C     3.429838     1.038099    -1.203437
 C     2.589598    -0.022600     1.354636
 C     1.712449    -1.367192    -1.054790
 C    -1.591032    -1.197837     0.248978
 C    -3.076447     1.264256     0.438523
 C    -2.385898     0.255327    -2.209771
 P    -1.658667     0.518420    -0.511461
 P     1.905658     0.354325    -0.341567
 C     0.234667     2.474404     0.888715
 O     0.341203     3.082329     1.862938
 H     3.463834     0.560074    -2.193622
 H     3.178798     2.092583    -1.370402
 C     4.751327     0.935256    -0.505121
 C     5.117548     1.902854     0.441719
 H     4.443331     2.741085     0.640401
 C     5.650185    -0.107002    -0.760547
 H     5.404743    -0.860874    -1.509240
 C     6.323245     1.825562     1.132448
 H     6.610882     2.576759     1.870186
 C     6.861901    -0.199297    -0.080548
 H     7.563755    -1.011369    -0.278838
 C     7.181314     0.765776     0.865309
 F     8.338109     0.680778     1.522697
 H     2.973419     0.937503     1.729388
 H     3.466673    -0.676267     1.227811
 C     1.620132    -0.597979     2.344769
 C     1.351397    -1.973534     2.401595
 H     1.849534    -2.653708     1.708683
 C     0.975244     0.229755     3.274420
 H     1.174798     1.302117     3.266190
 C     0.471442    -2.502735     3.343550
 H     0.281303    -3.578227     3.361915
 C     0.100472    -0.296088     4.223017
 H    -0.377513     0.373479     4.942564
 C    -0.156660    -1.665554     4.262633
 H    -0.844397    -2.079449     5.003406
 H     1.053427    -1.220919    -1.921419
 H     1.129579    -1.924138    -0.306665
 C     2.938517    -2.121338    -1.464616
 C     3.685253    -2.891233    -0.562763
 H     3.372637    -2.963323     0.480183
 C     3.373082    -2.069253    -2.797517
 H     2.794683    -1.491777    -3.524368
 C     4.829355    -3.572518    -0.972135
 H     5.393321    -4.163911    -0.247069
 C     4.517778    -2.747043    -3.211607
 H     4.833743    -2.689492    -4.255927
 C     5.254248    -3.500505    -2.297846
 H     6.151227    -4.034435    -2.619558
 H    -1.306007    -1.878236    -0.568176
 H    -0.732467    -1.141542     0.933752
 C    -2.783241    -1.723831     0.993756
 C    -2.992271    -1.353765     2.330038
 H    -2.267114    -0.703832     2.824035
 C    -3.705029    -2.597397     0.406189
 H    -3.562430    -2.919889    -0.625706
 C    -4.090302    -1.812387     3.050703
 H    -4.253245    -1.524386     4.090915
 C    -4.808501    -3.069966     1.112331
 H    -5.527903    -3.748749     0.650902
 C    -4.992632    -2.665483     2.427240
 F    -6.048972    -3.111073     3.109001
 H    -2.798222     1.159382     1.497124
 H    -3.966031     0.633761     0.286417
 C    -3.345336     2.705117     0.129347
 C    -4.099271     3.092465    -0.986036
 H    -4.545545     2.333334    -1.632154
 C    -2.823964     3.711314     0.952204
 H    -2.245860     3.434580     1.836045
 C    -4.296689     4.438080    -1.288695
 H    -4.884834     4.714005    -2.167235
 C    -3.018159     5.057318     0.653349
 H    -2.592723     5.822058     1.307539
 C    -3.749154     5.427554    -0.474596
 H    -3.899096     6.482961    -0.713207
 H    -1.503626     0.081799    -2.841451
 H    -2.769903     1.246283    -2.496581
 C    -3.400054    -0.819992    -2.434924
 C    -4.755192    -0.656795    -2.116957
 H    -5.103534     0.285840    -1.690178
 C    -3.000390    -2.041071    -2.997383
 H    -1.950750    -2.182577    -3.270730
 C    -5.672993    -1.680930    -2.336458
 H    -6.722766    -1.529822    -2.074416
 C    -3.915771    -3.067283    -3.223056
 H    -3.578666    -4.007531    -3.666090
 C    -5.258032    -2.892415    -2.888027
 H    -5.979162    -3.693973    -3.063544
