  94
scf done:    -4501.045658
 C     1.975664    -3.019414    -1.715440
 H     2.807831    -2.861412    -2.408337
 H     2.262382    -3.506321    -0.777438
 C     0.662482    -3.175006    -2.198036
 H     0.471585    -3.154519    -3.275578
 H    -0.058321    -3.764274    -1.627100
 H     0.469681    -1.910787    -0.136709
Co     0.909415    -1.317635    -1.415989
 C     2.792872    -1.175317     1.447755
 O     3.861600    -0.461152    -0.955768
 O     2.292456     1.110170     0.349129
 C    -1.538072     0.964648    -2.036996
 O    -2.314203    -1.449519    -1.391749
 O    -1.173670    -0.083924     0.502881
 P    -0.973896    -0.501528    -1.086080
 P     2.372104    -0.471357    -0.195873
 C     1.255122    -0.557258    -2.964043
 O     1.454365    -0.073249    -3.984612
 H     2.866936    -2.262048     1.291838
 H     3.791469    -0.802236     1.720933
 C     1.790994    -0.833493     2.511139
 C     1.963799     0.316149     3.290267
 H     2.838802     0.949232     3.126808
 C     0.661990    -1.629193     2.726878
 H     0.525278    -2.529772     2.121298
 C     1.030154     0.645544     4.268536
 H     1.181197     1.534518     4.886312
 C    -0.296921    -1.300847     3.690875
 C    -1.535912    -2.129003     3.865558
 H    -2.377910    -1.688162     3.304961
 H    -1.392467    -3.156135     3.500664
 H    -1.841976    -2.181662     4.920558
 C    -0.092812    -0.154601     4.466228
 H    -0.827023     0.114794     5.230246
 C     5.048218    -0.117073    -0.366103
 C     5.983427    -1.122737    -0.114501
 H     5.730763    -2.152902    -0.372663
 C     5.346911     1.211901    -0.056153
 H     4.616283     1.993678    -0.264029
 C     7.215520    -0.807528     0.450694
 H     7.963093    -1.576167     0.654366
 C     6.577395     1.530377     0.512969
 H     6.835974     2.560771     0.763298
 C     7.496361     0.518011     0.761126
 F     8.673059     0.824535     1.305161
 C     1.748124     2.133991    -0.360477
 C     0.915730     3.024420     0.320727
 H     0.729583     2.854748     1.381301
 C     2.031183     2.336784    -1.713574
 H     2.708570     1.659600    -2.235491
 C     0.348733     4.103178    -0.348897
 H    -0.300159     4.814854     0.164794
 C     1.448478     3.405594    -2.393094
 H     1.643225     3.572604    -3.453754
 C     0.612646     4.275416    -1.704432
 F     0.055386     5.298030    -2.349914
 H    -0.752307     1.715729    -1.861767
 H    -1.430820     0.642564    -3.086248
 C    -2.902395     1.527404    -1.772487
 C    -4.047181     0.918116    -2.293757
 H    -3.948786     0.029802    -2.920716
 C    -3.048516     2.666215    -0.972592
 H    -2.152578     3.146230    -0.572561
 C    -5.306894     1.431713    -1.993939
 H    -6.199336     0.951917    -2.403587
 C    -4.303398     3.185321    -0.650517
 C    -4.442606     4.377078     0.251341
 H    -3.461977     4.798312     0.513435
 H    -5.040511     5.171983    -0.221140
 H    -4.948793     4.100187     1.189815
 C    -5.436305     2.548921    -1.173921
 H    -6.430515     2.937816    -0.936368
 C    -2.434032    -2.751653    -1.000349
 C    -2.931265    -3.666343    -1.929216
 H    -3.176086    -3.316522    -2.933376
 C    -2.109798    -3.167931     0.292629
 H    -1.734093    -2.445308     1.016564
 C    -3.092150    -5.001992    -1.575471
 H    -3.474583    -5.737051    -2.285741
 C    -2.261075    -4.506434     0.646130
 H    -2.011064    -4.859108     1.648452
 C    -2.747862    -5.408704    -0.291000
 F    -2.894223    -6.688939     0.049334
 C    -2.232981     0.470894     1.169517
 C    -3.555942     0.066271     0.979420
 H    -3.797643    -0.697107     0.242768
 C    -1.926570     1.444854     2.119154
 H    -0.880085     1.696376     2.285225
 C    -4.574595     0.691676     1.692332
 H    -5.619020     0.420413     1.532224
 C    -2.942373     2.065251     2.838713
 H    -2.726315     2.838890     3.577637
 C    -4.258522     1.691348     2.601927
 F    -5.242863     2.318373     3.254034
