 106
scf done:    -4261.423082
 C     0.649966     1.625710    -3.137277
 H     0.805892     2.696017    -3.309475
 H     1.454849     1.000881    -3.536686
 C    -0.661290     1.116671    -3.055288
 H    -1.519781     1.788253    -3.145207
 H    -0.868882     0.091418    -3.374699
 H     0.619979    -0.223253    -1.465187
Co     0.190752     1.179210    -1.212993
 C     3.512552     0.287130    -1.399839
 O     2.967092     2.183813     0.217073
 O     2.036570    -0.159382     0.871639
 C    -0.923185     0.603452     1.898448
 O    -2.788143     0.677284     0.062143
 O    -1.221305    -1.388463     0.145829
 P    -1.180089     0.271261     0.111349
 P     2.084317     0.897863    -0.411847
 C    -0.288221     2.828470    -0.829742
 O    -0.664414     3.892876    -0.629003
 H     3.525431     0.943363    -2.284427
 H     4.409343     0.525103    -0.810649
 C     3.502293    -1.161780    -1.788211
 C     4.374439    -2.058693    -1.162133
 H     5.050345    -1.703080    -0.380932
 C     2.650752    -1.644005    -2.790039
 H     1.972142    -0.952416    -3.294607
 C     4.373306    -3.404320    -1.520197
 H     5.048996    -4.097564    -1.013656
 C     2.654038    -2.986584    -3.178424
 C     1.787361    -3.464303    -4.307085
 H     1.342431    -4.446010    -4.086735
 H     0.972820    -2.757853    -4.518444
 H     2.377707    -3.575847    -5.231730
 C     3.519098    -3.866974    -2.517137
 H     3.529774    -4.924125    -2.797064
 C     2.353505     3.240396     0.833044
 C     1.724905     3.073288     2.065485
 H     1.726883     2.087582     2.533684
 C     2.397561     4.486845     0.192377
 C     3.050611     4.608477    -1.149074
 H     4.101746     4.283091    -1.112635
 H     2.546736     3.962303    -1.886223
 H     3.015403     5.642932    -1.516043
 C     1.111253     4.163382     2.679113
 H     0.613408     4.033657     3.642905
 C     1.786102     5.565455     0.834788
 H     1.801448     6.544681     0.349000
 C     1.141968     5.411697     2.061761
 H     0.662281     6.270819     2.535703
 C     3.061686    -0.802948     1.514759
 C     4.166550    -0.111027     2.009156
 H     4.232079     0.967314     1.860156
 C     2.920106    -2.189855     1.686898
 C     1.754676    -2.909134     1.085742
 H     1.651730    -3.918799     1.506213
 H     0.812387    -2.361081     1.217732
 H     1.900530    -3.007006    -0.003505
 C     5.172503    -0.811337     2.674295
 H     6.042358    -0.272292     3.056640
 C     3.936317    -2.859077     2.372525
 H     3.846894    -3.939579     2.514609
 C     5.057866    -2.186901     2.858393
 H     5.839316    -2.738919     3.385351
 H     0.123646     0.315024     2.068686
 H    -0.982040     1.699708     1.991007
 C    -1.853135    -0.106394     2.825862
 C    -3.094262     0.442526     3.168582
 H    -3.366551     1.432149     2.796198
 C    -1.522487    -1.377446     3.305640
 H    -0.553321    -1.808112     3.039179
 C    -3.979941    -0.278725     3.964176
 H    -4.946939     0.154679     4.231139
 C    -2.406146    -2.121558     4.092992
 C    -2.047986    -3.511488     4.530717
 H    -0.977794    -3.595398     4.770703
 H    -2.624926    -3.820800     5.413901
 H    -2.259484    -4.234880     3.725482
 C    -3.642348    -1.552984     4.418337
 H    -4.347974    -2.115200     5.036089
 C    -3.479691     1.030088    -1.068711
 C    -3.624904     0.142562    -2.131982
 H    -3.177880    -0.850348    -2.068769
 C    -4.074648     2.300358    -1.085172
 C    -3.959655     3.208494     0.100641
 H    -4.420498     2.749360     0.989533
 H    -2.910360     3.419432     0.352368
 H    -4.461621     4.166633    -0.089762
 C    -4.344234     0.529524    -3.259384
 H    -4.451672    -0.165978    -4.094686
 C    -4.790104     2.662562    -2.230399
 H    -5.255531     3.651336    -2.265821
 C    -4.921284     1.795913    -3.314442
 H    -5.483411     2.108159    -4.197335
 C    -2.259401    -2.234342    -0.142693
 C    -3.437318    -2.226323     0.603257
 H    -3.554248    -1.514366     1.419035
 C    -2.074228    -3.126227    -1.211313
 C    -0.807298    -3.093468    -2.006316
 H    -0.573373    -2.071006    -2.339861
 H     0.056880    -3.416233    -1.405152
 H    -0.879231    -3.746833    -2.885419
 C    -4.455399    -3.122659     0.286533
 H    -5.378968    -3.110426     0.869636
 C    -3.111367    -4.017663    -1.501147
 H    -2.983993    -4.717961    -2.331347
 C    -4.295010    -4.021564    -0.765027
 H    -5.092312    -4.724400    -1.016982
