 104
scf done:    -3785.436681
 C    -0.325683     1.760937     0.980417
 H     0.383777     2.571788     0.798949
 H    -1.360368     2.107179     1.077737
 C     0.089560     0.596092     1.658340
 H     1.119426     0.502279     2.015808
 H    -0.617001     0.064682     2.302251
 H     0.326694    -1.199052    -0.475828
Co    -0.121098     0.233358    -0.335610
 C    -1.780214    -2.531198     0.937302
 C    -3.289478    -0.080748     0.810323
 C    -2.618691    -1.553084    -1.598052
 C     2.449755     2.030610    -1.787140
 C     3.238966     0.296438     0.377054
 C     2.453899    -0.788275    -2.189769
 P     1.943136     0.453743    -0.924395
 P    -1.882094    -0.938501    -0.021808
 C    -0.701819     0.998292    -1.769951
 O    -1.082806     1.528035    -2.728287
 H    -2.790900    -2.967587     0.955503
 H    -1.140923    -3.188169     0.328312
 C    -1.242261    -2.414219     2.328639
 C     0.119244    -2.603829     2.590649
 H     0.784734    -2.881264     1.770705
 C    -2.079132    -2.067947     3.397030
 H    -3.149230    -1.931756     3.221758
 C     0.640032    -2.426953     3.868519
 H     1.701035    -2.566910     4.080965
 C    -1.575705    -1.885208     4.682450
 H    -2.221972    -1.611184     5.518099
 C    -0.215087    -2.059251     4.899475
 F     0.279352    -1.884297     6.125060
 H    -4.083504    -0.805991     1.058016
 H    -2.891249     0.290348     1.769867
 C    -3.846149     1.078362    -0.005486
 H    -3.010165     1.695791    -0.374818
 H    -4.354618     0.692087    -0.906298
 C    -4.811968     1.954366     0.779360
 H    -4.295895     2.347967     1.674094
 H    -5.645761     1.337203     1.161793
 C    -5.370087     3.115105    -0.031905
 H    -4.529992     3.720673    -0.415260
 H    -5.882357     2.718156    -0.926379
 C    -6.323518     3.999518     0.754925
 H    -6.708678     4.828729     0.142358
 H    -5.825867     4.439230     1.634259
 H    -7.190514     3.426372     1.121561
 H    -2.744370    -0.660475    -2.232448
 H    -1.817662    -2.139077    -2.079860
 C    -3.917263    -2.343161    -1.536952
 H    -3.776319    -3.270979    -0.956773
 H    -4.687022    -1.762943    -0.998443
 C    -4.448841    -2.703131    -2.918533
 H    -3.681385    -3.280597    -3.465307
 H    -4.596175    -1.776965    -3.503212
 C    -5.749427    -3.493397    -2.884703
 H    -5.596767    -4.416406    -2.297408
 H    -6.510476    -2.912729    -2.333536
 C    -6.277109    -3.847015    -4.265717
 H    -7.216960    -4.416671    -4.208737
 H    -5.551253    -4.457937    -4.826201
 H    -6.472525    -2.941417    -4.862260
 H     3.534355     1.986551    -1.972708
 H     1.945849     2.000781    -2.765974
 C     2.089321     3.288087    -1.057071
 C     0.926306     3.998404    -1.380434
 H     0.287614     3.644647    -2.192078
 C     2.885721     3.765746    -0.008277
 H     3.808365     3.240850     0.251849
 C     0.554707     5.135822    -0.669860
 H    -0.353920     5.689230    -0.913361
 C     2.527134     4.899954     0.715479
 H     3.141457     5.274872     1.535943
 C     1.357800     5.569087     0.377253
 F     1.006021     6.655481     1.065082
 H     4.214714     0.613699    -0.028121
 H     2.973682     1.020088     1.165336
 C     3.313856    -1.111034     0.951148
 H     2.286096    -1.481758     1.098936
 H     3.780373    -1.784560     0.210980
 C     4.078833    -1.197111     2.263606
 H     3.525249    -0.636009     3.038428
 H     5.054649    -0.687656     2.163778
 C     4.306747    -2.627556     2.733200
 H     3.344386    -3.169668     2.726777
 H     4.940045    -3.152244     1.996189
 C     4.937089    -2.720282     4.113046
 H     5.105823    -3.764881     4.415240
 H     4.295971    -2.251832     4.877654
 H     5.909711    -2.203405     4.143002
 H     2.265517    -1.767223    -1.720458
 H     1.702817    -0.706717    -2.993906
 C     3.867030    -0.717437    -2.747485
 H     4.020844     0.236467    -3.279778
 H     4.600573    -0.725118    -1.921771
 C     4.182181    -1.866651    -3.696605
 H     3.446886    -1.869746    -4.521662
 H     4.038403    -2.825885    -3.166553
 C     5.590154    -1.812961    -4.272767
 H     5.728271    -0.852391    -4.800192
 H     6.319687    -1.804237    -3.443347
 C     5.901447    -2.963765    -5.215835
 H     6.924693    -2.897104    -5.615300
 H     5.209739    -2.975391    -6.073509
 H     5.806406    -3.935616    -4.705176
