  96
scf done:    -4080.411361
 C    -1.090285    -2.935652    -1.948978
 H    -1.670911    -3.689291    -1.404379
 H    -1.649187    -2.442640    -2.749676
 C     0.301915    -3.095595    -2.089698
 H     0.780885    -3.974221    -1.645639
 H     0.809253    -2.735912    -2.989209
 H    -0.273036    -0.671452    -1.916414
Co    -0.117373    -1.609023    -0.768397
 C    -3.146298    -0.351662    -1.494909
 C    -2.945976    -1.188222     1.195318
 C    -1.464048     1.220346     0.471854
 C     1.973167    -0.049293     1.326075
 C     3.359022    -1.347428    -0.826483
 C     1.906258     1.103233    -1.404280
 P     1.755750    -0.478614    -0.488252
 P    -1.862183    -0.469830    -0.132929
 C     0.150537    -2.593137     0.654843
 O     0.396251    -3.213360     1.593494
 H    -2.683891     0.184301    -2.331907
 H    -3.211341    -1.403063    -1.807012
 C    -4.519584     0.155765    -1.181230
 C    -5.490907    -0.722732    -0.679750
 H    -5.233514    -1.772946    -0.522813
 C    -4.886733     1.493510    -1.374878
 H    -4.158949     2.204652    -1.768174
 C    -6.774082    -0.286217    -0.365804
 H    -7.528444    -0.968911     0.028986
 C    -6.166764     1.948879    -1.071390
 H    -6.454066     2.990801    -1.222640
 C    -7.095781     1.050761    -0.562329
 F    -8.322687     1.478633    -0.264016
 C    -2.867717    -2.587235     1.284938
 H    -2.159846    -3.107019     0.639859
 C    -3.908064    -0.512704     1.985422
 C    -4.200968     0.961167     1.956412
 H    -3.823870     1.463369     1.062964
 H    -3.758557     1.469638     2.827616
 H    -5.288895     1.117622     1.997464
 C    -3.670245    -3.325382     2.145853
 H    -3.575910    -4.412838     2.182255
 C    -4.688392    -1.276537     2.867517
 H    -5.425186    -0.754746     3.484815
 C    -4.580686    -2.657984     2.959829
 H    -5.215946    -3.211393     3.655740
 C    -1.206388     1.332535     1.849138
 H    -1.303668     0.445233     2.480929
 C    -1.274538     2.348330    -0.353591
 C    -1.295582     2.293703    -1.853787
 H    -2.307076     2.389588    -2.274891
 H    -0.862018     1.350831    -2.216814
 H    -0.691164     3.112270    -2.266506
 C    -0.856709     2.544741     2.430128
 H    -0.666835     2.600337     3.504558
 C    -0.972244     3.572740     0.261460
 H    -0.849886     4.453255    -0.374809
 C    -0.772546     3.685555     1.631708
 H    -0.528839     4.655044     2.072665
 H     1.145501     0.632036     1.570709
 H     1.727944    -1.004597     1.812722
 C     3.280584     0.453706     1.855818
 C     4.363041    -0.423371     2.020444
 H     4.242738    -1.479908     1.772491
 C     3.459710     1.792126     2.230095
 H     2.620553     2.488885     2.167837
 C     5.594583     0.025475     2.485833
 H     6.440674    -0.653635     2.604102
 C     4.684678     2.259007     2.700035
 H     4.827563     3.301635     2.989209
 C     5.744749     1.368558     2.807624
 F     6.924401     1.807648     3.247195
 C     3.283142    -2.743283    -0.733882
 H     2.308002    -3.194884    -0.560702
 C     4.621496    -0.743387    -1.055519
 C     4.878575     0.734273    -1.138051
 H     4.372641     1.290700    -0.340655
 H     4.533793     1.160924    -2.091815
 H     5.956514     0.927771    -1.052981
 C     4.403224    -3.558354    -0.859021
 H     4.302511    -4.642469    -0.771794
 C     5.731268    -1.588326    -1.202362
 H     6.707201    -1.128770    -1.380329
 C     5.639914    -2.972747    -1.105942
 H     6.535872    -3.588178    -1.218321
 C     1.851649     2.322698    -0.725975
 H     1.690002     2.337853     0.348980
 C     2.064647     1.102328    -2.809635
 C     2.132330    -0.166840    -3.600869
 H     1.367497    -0.875556    -3.253691
 H     3.107344    -0.665307    -3.475029
 H     1.983839     0.026522    -4.672053
 C     1.997062     3.534712    -1.394980
 H     1.962263     4.470813    -0.833127
 C     2.190906     2.330780    -3.466714
 H     2.315122     2.331258    -4.553068
 C     2.174117     3.539724    -2.774573
 H     2.291240     4.481648    -3.315868
