  86
scf done:    -3351.371906
 C     0.885403    -3.445435    -0.399904
 H     1.387260    -3.696538    -1.341420
 H     1.519698    -3.575901     0.483976
 C    -0.512507    -3.640602    -0.280087
 H    -1.075005    -4.043239    -1.129791
 H    -0.933341    -3.915971     0.692020
 H     0.048661    -1.648234     1.052031
Co    -0.084936    -1.682403    -0.436457
 C     2.682517    -0.663520     1.169262
 C     2.878585    -0.786532    -1.740744
 C     1.461052     1.396212    -0.459164
 C    -3.058346    -0.263392    -1.205928
 C    -3.040363    -1.835706     1.177681
 C    -1.841238     0.815053     1.150970
 P    -1.912226    -0.762741     0.187815
 P     1.670456    -0.437921    -0.378361
 C    -0.343153    -1.555829    -2.156183
 O    -0.517826    -1.441479    -3.289861
 H     2.063607    -0.251673     1.981394
 H     2.707707    -1.752397     1.320287
 C     4.059940    -0.083832     1.176441
 C     5.163043    -0.865492     0.813532
 H     5.020885    -1.924734     0.583462
 C     4.273302     1.264271     1.490669
 H     3.421540     1.877946     1.799032
 C     6.431397    -0.297215     0.728034
 H     7.284116    -0.913407     0.432328
 C     5.539115     1.851594     1.412515
 C     5.742054     3.294403     1.774924
 H     6.084529     3.393425     2.818559
 H     6.504145     3.766283     1.137373
 H     4.810337     3.870190     1.679337
 C     6.618126     1.053016     1.013056
 H     7.615919     1.493583     0.935972
 H     3.402642    -1.706341    -1.428015
 H     2.274556    -1.083675    -2.613365
 C     3.879860     0.289031    -2.148640
 H     4.399954     0.690448    -1.266184
 H     3.338550     1.138433    -2.598098
 C     4.907990    -0.235707    -3.138860
 H     5.509720    -1.041782    -2.689121
 H     4.427034    -0.645112    -4.041910
 H     5.601242     0.557758    -3.457239
 H     0.997644     1.696366     0.495050
 H     2.445241     1.889796    -0.501296
 C     0.579642     1.835331    -1.620454
 H    -0.358963     1.258840    -1.582634
 H     1.052912     1.555251    -2.576982
 C     0.277701     3.324964    -1.610146
 H    -0.242722     3.617895    -0.683041
 H     1.200561     3.923604    -1.669858
 H    -0.362709     3.613156    -2.457844
 H    -2.439175     0.333193    -1.893575
 H    -3.280954    -1.204345    -1.733362
 C    -4.311467     0.472088    -0.850374
 C    -5.497812    -0.209500    -0.553001
 H    -5.525684    -1.299994    -0.621134
 C    -4.316780     1.871498    -0.782832
 H    -3.400404     2.416140    -1.030977
 C    -6.640978     0.494046    -0.180046
 H    -7.560661    -0.049200     0.051124
 C    -5.453526     2.594487    -0.412516
 C    -5.433764     4.095543    -0.377976
 H    -4.410280     4.483748    -0.275131
 H    -5.854061     4.516670    -1.306545
 H    -6.034521     4.487159     0.456267
 C    -6.619666     1.883815    -0.102852
 H    -7.520947     2.427478     0.193633
 H    -3.994891    -1.304375     1.328929
 H    -3.250315    -2.693546     0.515373
 C    -2.495776    -2.341044     2.508126
 H    -2.491309    -1.517602     3.240314
 H    -1.442138    -2.638810     2.381255
 C    -3.306254    -3.502417     3.062306
 H    -4.363722    -3.225300     3.201655
 H    -3.278593    -4.365365     2.377519
 H    -2.917524    -3.837358     4.036103
 H    -1.508393     1.580147     0.428243
 H    -2.868077     1.096336     1.438871
 C    -0.917473     0.831889     2.360747
 H     0.047036     0.380851     2.081040
 H    -1.320922     0.180525     3.150874
 C    -0.708157     2.232721     2.914043
 H    -0.251202     2.896256     2.160843
 H    -1.662974     2.692479     3.215185
 H    -0.048423     2.225154     3.795298
