  84
scf done:    -3923.290775
 C    -0.960731     3.498454     1.152648
 H    -1.395568     4.201422     0.433289
 H    -1.631288     3.256272     1.984275
 C     0.437657     3.501017     1.356879
 H     1.067679     4.189511     0.784288
 H     0.851022     3.251074     2.339110
 H    -0.298761     1.255279     1.649096
Co    -0.109846     1.865446     0.323374
 C    -2.772945     0.241905     1.544644
 C    -3.096019     1.051666    -1.187948
 C    -1.330251    -1.125772    -0.576194
 C     2.088292    -0.126332    -1.225518
 C     3.244866     1.634140     0.720585
 C     1.796643    -0.612723     1.707049
 P     1.700739     0.688313     0.410030
 P    -1.779619     0.561870    -0.005281
 C     0.107530     2.488679    -1.299430
 O     0.268452     2.876535    -2.371857
 H    -2.094039    -0.294454     2.224705
 H    -2.904943     1.246004     1.973500
 C    -4.084923    -0.453473     1.378879
 C    -5.257481     0.290590     1.193330
 H    -5.205847     1.382214     1.205097
 C    -4.177768    -1.850988     1.343812
 H    -3.281051    -2.457032     1.486222
 C    -6.483215    -0.328802     0.971585
 H    -7.397405     0.247993     0.821687
 C    -5.395095    -2.488237     1.117732
 H    -5.474106    -3.576449     1.088154
 C    -6.534880    -1.716152     0.930338
 F    -7.703172    -2.320283     0.711655
 C    -3.220325     2.405834    -1.514632
 C    -4.027770     0.140335    -1.707143
 C    -5.165336     1.930655    -2.863358
 C    -5.050949     0.577585    -2.543188
 C    -4.250375     2.844660    -2.345550
 H    -2.500443     3.115744    -1.103927
 H    -4.332705     3.905686    -2.592707
 H    -5.970256     2.271868    -3.519048
 H    -5.769420    -0.143652    -2.939798
 H    -3.958579    -0.919116    -1.451759
 C    -1.284304    -1.427905    -1.945387
 C    -0.853191    -2.078735     0.333331
 C    -0.366951    -3.613672    -1.469452
 C    -0.380813    -3.313178    -0.108544
 C    -0.812984    -2.662115    -2.387168
 H    -1.621431    -0.688740    -2.675787
 H    -0.792594    -2.879984    -3.457676
 H    -0.002898    -4.584032    -1.815486
 H    -0.012473    -4.038188     0.620749
 H    -0.826007    -1.857614     1.402476
 H     1.193417    -0.723441    -1.455961
 H     2.054044     0.733931    -1.914241
 C     3.331674    -0.930764    -1.470201
 C     4.613029    -0.364268    -1.418732
 H     4.730973     0.696347    -1.192691
 C     3.226462    -2.289777    -1.799469
 H     2.234434    -2.745002    -1.860713
 C     5.750242    -1.132443    -1.653222
 H     6.749504    -0.695573    -1.609336
 C     4.353621    -3.071600    -2.038055
 H     4.273770    -4.130087    -2.292375
 C     5.607782    -2.480860    -1.954152
 F     6.694728    -3.220334    -2.176054
 C     3.465778     2.792603    -0.037678
 C     4.221320     1.226041     1.634229
 C     5.625676     3.089812     1.001516
 C     5.403357     1.953534     1.775447
 C     4.652280     3.507861     0.092148
 H     2.704015     3.131532    -0.744077
 H     4.814937     4.402692    -0.513403
 H     6.554288     3.655323     1.109477
 H     6.158378     1.622294     2.492551
 H     4.065529     0.326177     2.232451
 C     1.267882    -0.315431     2.971627
 C     2.381273    -1.868415     1.508440
 C     1.863234    -2.511621     3.782102
 C     2.404742    -2.812777     2.534883
 C     1.303218    -1.252561     4.000652
 H     0.808157     0.661203     3.140418
 H     0.885339    -0.998835     4.977882
 H     1.882210    -3.252446     4.585133
 H     2.856063    -3.791200     2.352458
 H     2.821959    -2.123822     0.547058
