  64
scf done:    -1833.731152
 C    -0.700956    -2.659223    -1.482444
 H    -0.552080    -3.661952    -1.050003
 H    -1.796454    -2.558838    -1.577506
 C    -0.044328    -2.600380    -2.858422
 H     1.041263    -2.778889    -2.797243
 H    -0.458540    -3.356268    -3.551734
 H    -0.172763    -1.617552    -3.343489
Ir     0.203634    -1.119058    -0.282391
 C    -2.418521     0.212386    -2.337661
 O    -3.042148    -0.632844     0.027555
 O    -1.737880     1.580876    -0.062083
 C     0.730146     1.366452     2.201898
 O     2.874762     0.472031     1.081331
 O     1.347467     1.911375    -0.427202
 P     1.301872     0.655873     0.631794
 P    -1.724915     0.051347    -0.668991
 C     1.181451    -2.444396     0.596035
 O     1.633270    -3.272784     1.260237
 H    -1.761390     0.863502    -2.930595
 H    -2.441700    -0.784769    -2.797461
 H    -3.439386     0.618249    -2.310309
 C    -2.991171    -1.135226     1.373599
 H    -2.086872    -0.729212     1.863539
 C    -2.892838    -2.645263     1.347545
 H    -1.964424    -2.955172     0.850057
 H    -3.749181    -3.073587     0.804337
 H    -2.891507    -3.046164     2.372363
 C    -4.232437    -0.638421     2.085865
 H    -4.275044     0.459834     2.097949
 H    -5.135378    -1.011138     1.578212
 H    -4.248569    -0.996171     3.126076
 C    -2.917327     2.388965     0.005244
 H    -3.799205     1.733870    -0.110292
 C    -2.899403     3.425242    -1.102631
 H    -2.870169     2.955809    -2.094948
 H    -2.015158     4.071769    -1.004299
 H    -3.798124     4.058113    -1.050815
 C    -2.956382     3.021532     1.382193
 H    -2.939295     2.251490     2.166452
 H    -2.084867     3.678181     1.525567
 H    -3.867525     3.625156     1.508228
 H    -0.302542     1.710064     2.058727
 H     0.744718     0.557711     2.945839
 H     1.373644     2.186244     2.551214
 C     3.775816    -0.392856     0.384739
 H     3.177520    -1.092583    -0.227871
 C     4.548394    -1.173978     1.426026
 H     3.864334    -1.772184     2.044094
 H     5.104790    -0.487634     2.083148
 H     5.265307    -1.856447     0.945883
 C     4.661050     0.421849    -0.536820
 H     4.056093     0.924387    -1.303910
 H     5.214978     1.185245     0.031681
 H     5.388223    -0.227638    -1.046628
 C     1.956182     3.172540    -0.144475
 H     2.688865     3.040203     0.672704
 C     0.895170     4.176673     0.267423
 H     0.358308     3.854123     1.168662
 H     0.160294     4.292720    -0.542638
 H     1.350157     5.158037     0.469653
 C     2.689673     3.616907    -1.394269
 H     3.474726     2.900327    -1.668366
 H     1.984409     3.693509    -2.235885
 H     3.157501     4.600738    -1.240085
