  72
scf done:    -1690.051959
 C    -2.262172    -2.247947    -0.541584
 H    -2.047304    -3.327337    -0.444966
 H    -2.951448    -2.021290     0.287755
 C    -2.997581    -1.997336    -1.855738
 H    -2.400860    -2.309932    -2.727996
 H    -3.958711    -2.543219    -1.907380
 H    -3.229465    -0.928614    -2.000287
Ir    -0.462087    -1.088557    -0.448182
 C    -2.095021     1.282996     1.684845
 C    -2.123898    -1.409369     2.690504
 C     0.317162     0.102844     2.801672
 C     2.894929     0.026273     0.045880
 C     1.750236     0.530511    -2.549392
 C     0.899618     2.188330    -0.331648
 P     1.280854     0.420875    -0.766110
 P    -1.095226    -0.269989     1.669514
 C     0.227887    -2.228661    -1.733740
 O     0.725217    -3.012626    -2.422825
 H    -2.576788     1.417060     2.668355
 H    -1.388711     2.120519     1.558103
 C    -3.122860     1.294852     0.559565
 H    -2.602564     1.096148    -0.395219
 H    -3.823485     0.450660     0.682910
 C    -3.906614     2.594830     0.463675
 H    -3.201160     3.437013     0.336234
 H    -4.428184     2.785645     1.419684
 C    -4.916334     2.605219    -0.675699
 H    -4.388722     2.405518    -1.625010
 H    -5.616252     1.761325    -0.544271
 C    -5.694846     3.906140    -0.783615
 H    -6.414889     3.881005    -1.615448
 H    -5.021787     4.762313    -0.952663
 H    -6.260634     4.111659     0.139516
 H    -3.088890    -1.509580     2.171193
 C    -1.479767    -2.772092     2.885126
 H    -0.551540    -2.703173     3.473916
 H    -1.224727    -3.219591     1.912941
 H    -2.336050    -0.914754     3.652246
 H    -2.158252    -3.456813     3.416175
 H     0.903936     0.885259     2.296311
 C    -0.015799     0.519702     4.225237
 H    -0.520612    -0.283844     4.781507
 H    -0.667510     1.406518     4.252502
 H     0.951593    -0.798140     2.786426
 H     0.901769     0.770367     4.779736
 H     2.658812    -0.157283     1.106410
 H     3.148802    -0.968002    -0.362257
 C     4.080643     0.973080    -0.075446
 H     4.268156     1.221044    -1.134409
 H     3.848080     1.928422     0.425189
 C     5.353728     0.397988     0.532566
 H     5.598749    -0.554764     0.029095
 H     5.165834     0.135075     1.589700
 C     6.548927     1.337256     0.449522
 H     6.729220     1.599543    -0.608180
 H     6.297538     2.287960     0.952825
 C     7.816445     0.757126     1.055843
 H     8.661335     1.458288     0.980951
 H     8.111630    -0.174940     0.547706
 H     7.675940     0.518171     2.122363
 H     2.167762    -0.458410    -2.801517
 C     0.567851     0.846810    -3.453110
 H     0.153618     1.847237    -3.251706
 H    -0.243918     0.119521    -3.297272
 H     2.562673     1.262910    -2.682613
 H     0.862334     0.817185    -4.513273
 H     1.011645     2.265207     0.762648
 C     1.662656     3.308528    -1.024578
 H     1.492945     3.303930    -2.110922
 H     2.746536     3.246164    -0.859097
 H    -0.180120     2.294193    -0.526742
 H     1.327041     4.287985    -0.648883
