  76
scf done:    -2142.183795
 C    -1.075376    -2.944444    -1.390348
 H    -1.308121    -3.880841    -0.855706
 H    -2.059756    -2.567979    -1.720431
 C    -0.216703    -3.257180    -2.612013
 H     0.740974    -3.723176    -2.328807
 H    -0.720908    -3.949877    -3.312239
 H     0.035163    -2.349454    -3.187160
Ir    -0.000782    -1.565983    -0.142377
 C    -1.803020     0.262009    -2.589551
 C    -3.311550    -0.580642    -0.272687
 C    -1.655687     1.666406    -0.080309
 C     1.295339     0.330502     2.605663
 C     3.237982    -0.571841     0.693158
 C     1.590498     1.577166     0.009216
 P     1.473007    -0.061017     0.824878
 P    -1.641082    -0.023472    -0.787471
 C     0.729407    -3.026523     0.740077
 O     1.049089    -3.934006     1.377705
 H    -0.879501     0.730146    -2.958704
 H    -1.912981    -0.718520    -3.072060
 H    -2.665498     0.894250    -2.843225
 C    -4.451821     0.147523    -0.633071
 H    -4.358488     1.051209    -1.241941
 C    -3.457980    -1.702255     0.546247
 H    -2.560581    -2.259083     0.833341
 C    -5.710127    -0.254323    -0.200788
 H    -6.590225     0.326415    -0.491413
 C    -4.721682    -2.094866     0.981888
 H    -4.817112    -2.974550     1.624444
 C    -5.868620    -1.385710     0.611862
 C    -7.232659    -1.830428     1.050961
 H    -7.721573    -2.428214     0.263495
 H    -7.182249    -2.455678     1.953641
 H    -7.888702    -0.972820     1.261479
 C    -1.521639     2.828852    -0.841351
 H    -1.391938     2.772559    -1.923185
 C    -1.817302     1.788543     1.305665
 H    -1.950737     0.887191     1.911257
 C    -1.534741     4.079640    -0.227886
 H    -1.421348     4.977032    -0.842646
 C    -1.826463     3.039247     1.911468
 H    -1.957609     3.111780     2.995011
 C    -1.677897     4.209719     1.155815
 C    -1.633020     5.556735     1.814176
 H    -2.213464     5.572017     2.747944
 H    -0.595206     5.831409     2.069944
 H    -2.023681     6.343857     1.153039
 H     1.302593    -0.625387     3.147795
 H     2.091957     0.976403     3.001207
 H     0.320805     0.812309     2.761590
 C     3.593811    -1.635116    -0.139953
 H     2.806460    -2.174099    -0.674465
 C     4.257061     0.129584     1.350425
 H     4.016765     0.991567     1.978299
 C     4.929776    -2.000888    -0.294345
 H     5.183759    -2.836797    -0.952065
 C     5.587084    -0.243181     1.198778
 H     6.366138     0.317803     1.723109
 C     5.948793    -1.319920     0.376943
 C     7.384417    -1.734449     0.241925
 H     7.701506    -2.337884     1.108879
 H     7.545887    -2.342789    -0.659180
 H     8.053001    -0.861950     0.192719
 C     1.610272     2.796258     0.687403
 H     1.520193     2.827613     1.774804
 C     1.695149     1.585708    -1.388227
 H     1.686788     0.633675    -1.929274
 C     1.727374     3.993700    -0.016471
 H     1.733414     4.939152     0.533645
 C     1.813590     2.782774    -2.083686
 H     1.899947     2.766570    -3.174143
 C     1.826715     4.011777    -1.409830
 C     1.900611     5.305954    -2.165090
 H     2.510097     5.209709    -3.075550
 H     0.895267     5.634355    -2.480442
 H     2.328023     6.110185    -1.549113
