 104
scf done:    -2757.074047
 C    -1.311523    -3.393816    -0.532000
 H    -0.936829    -4.352324    -0.136338
 H    -2.297070    -3.255206    -0.061736
 C    -1.466513    -3.515896    -2.044282
 H    -0.499018    -3.700387    -2.538811
 H    -2.143343    -4.343151    -2.330502
 H    -1.887852    -2.600779    -2.495277
Ir    -0.002743    -1.773532    -0.062780
 C    -1.549952     0.719225    -1.935517
 C    -3.511727    -0.975194    -0.657620
 C    -2.096434     0.775207     1.093357
 C     1.169814     1.673742     0.337965
 C     2.889250    -0.376966     1.362486
 C     2.545510    -0.008918    -1.554695
 P     1.644160    -0.092145     0.047899
 P    -1.836468    -0.274570    -0.394866
 C     1.172092    -3.069730     0.525897
 O     1.823327    -3.908815     0.980314
 H    -0.468906     0.922466    -1.940027
 H    -1.673523    -0.051850    -2.714909
 C    -2.319396     1.987580    -2.285836
 H    -2.234828     2.147504    -3.375525
 H    -3.389335     1.859273    -2.070263
 C    -1.794597     3.223211    -1.569101
 H    -0.749507     3.402887    -1.881524
 H    -1.752107     3.033707    -0.484055
 C    -2.613568     4.479335    -1.821529
 H    -2.645253     4.686151    -2.906137
 H    -3.660030     4.290157    -1.524846
 C    -2.083009     5.695413    -1.079092
 H    -2.697695     6.589715    -1.263205
 H    -1.051710     5.932564    -1.387040
 H    -2.063969     5.518793     0.008715
 C    -4.187640    -0.917084    -1.875744
 H    -3.735103    -0.400562    -2.722963
 C    -4.121312    -1.661787     0.414523
 O    -3.422653    -1.696504     1.559825
 C    -3.857551    -2.485852     2.628850
 H    -4.821308    -2.130831     3.034494
 H    -3.089011    -2.399037     3.406760
 H    -3.954531    -3.545067     2.334808
 C    -5.439229    -1.510242    -2.044448
 H    -5.944708    -1.452021    -3.010392
 C    -5.374623    -2.259017     0.251805
 H    -5.839875    -2.795483     1.078995
 C    -6.028192    -2.178073    -0.976769
 H    -7.006059    -2.651217    -1.094819
 C    -1.274661     0.523627     2.194680
 H    -0.503770    -0.249192     2.073320
 C    -3.169898     1.673630     1.248943
 O    -3.997757     1.824361     0.198100
 C    -5.193582     2.535014     0.350199
 H    -5.810968     2.117314     1.163803
 H    -5.737112     2.433121    -0.597765
 H    -5.016064     3.606912     0.546283
 C    -1.446339     1.193491     3.404064
 H    -0.784902     0.980154     4.246445
 C    -3.346532     2.353071     2.460268
 H    -4.164747     3.063544     2.579152
 C    -2.478559     2.118891     3.525546
 H    -2.629752     2.658213     4.464114
 H     0.343114     1.863140    -0.361117
 H     0.691596     1.697452     1.328509
 C     2.198719     2.785506     0.222727
 H     3.063979     2.572111     0.869945
 H     2.593499     2.821020    -0.805943
 C     1.599880     4.138699     0.584005
 H     1.225263     4.107128     1.623808
 H     0.709132     4.325517    -0.042140
 C     2.572263     5.299310     0.432074
 H     3.460455     5.113084     1.061856
 H     2.944706     5.323256    -0.607667
 C     1.962112     6.645472     0.788248
 H     2.683383     7.467825     0.665564
 H     1.613774     6.661125     1.833657
 H     1.090629     6.868391     0.151333
 C     2.808553     0.283727     2.588491
 H     2.051668     1.056648     2.736403
 C     3.865901    -1.381856     1.205546
 O     3.900627    -1.979956     0.002229
 C     4.720605    -3.095347    -0.200440
 H     5.789871    -2.841597    -0.091195
 H     4.537363    -3.428615    -1.229558
 H     4.461160    -3.911831     0.493783
 C     3.669787    -0.027472     3.641975
 H     3.584663     0.504328     4.591898
 C     4.727538    -1.701347     2.257391
 H     5.476104    -2.484685     2.136893
 C     4.626902    -1.020947     3.471071
 H     5.304382    -1.280737     4.288082
 C     1.894652    -0.546762    -2.666032
 H     0.927106    -1.033874    -2.496070
 C     3.835398     0.534167    -1.728174
 O     4.452851     0.990732    -0.623460
 C     5.756898     1.484008    -0.704572
 H     6.458379     0.723663    -1.090527
 H     6.051168     1.751994     0.318215
 H     5.818825     2.383015    -1.343449
 C     2.467898    -0.515317    -3.937842
 H     1.935106    -0.941058    -4.790436
 C     4.418849     0.562398    -2.998998
 H     5.415115     0.982337    -3.139918
 C     3.729489     0.045646    -4.096913
 H     4.199460     0.076622    -5.083242
