  76
scf done:    -2142.180820
 C     0.795312    -2.693730     2.045207
 H     0.651392    -3.786416     2.009850
 H     1.888315    -2.562818     1.952338
 C     0.348762    -2.174021     3.409864
 H    -0.724444    -2.354539     3.580596
 H     0.896084    -2.655845     4.241780
 H     0.504692    -1.086347     3.512612
Ir    -0.335866    -1.716475     0.500508
 C     2.436540     0.238562     1.543517
 C     2.909833    -1.766822    -0.535651
 C     1.758817     0.812540    -1.226590
 C    -1.810806    -0.662267    -2.629954
 C    -3.577453    -0.902197    -0.344159
 C    -1.823810     1.354196    -0.665826
 P    -1.817696    -0.491041    -0.803213
 P     1.658234    -0.531587     0.078188
 C    -1.503514    -3.148355     0.621089
 O    -2.143833    -4.109034     0.623072
 H     1.754776     1.010816     1.926601
 H     2.560850    -0.531908     2.316314
 H     3.401437     0.706227     1.307068
 H     2.410580    -2.276673    -1.373038
 H     2.999740    -2.508452     0.271616
 C     4.240518    -1.217473    -0.942293
 C     5.213576    -0.891368     0.012817
 H     5.016008    -1.089148     1.069029
 C     4.538878    -0.991576    -2.292966
 H     3.806466    -1.269063    -3.056517
 C     6.428544    -0.327185    -0.366983
 H     7.170561    -0.077001     0.394990
 C     5.756232    -0.431650    -2.677426
 H     5.966592    -0.265847    -3.736700
 C     6.702498    -0.087662    -1.713639
 H     7.656308     0.353874    -2.011257
 H     0.734743     0.969321    -1.584671
 H     2.330205     0.395837    -2.067990
 C     2.369430     2.105735    -0.774229
 C     3.724021     2.377431    -1.001947
 H     4.336505     1.651280    -1.541487
 C     1.607592     3.046828    -0.068897
 H     0.553489     2.850355     0.141302
 C     4.300006     3.558527    -0.537791
 H     5.359198     3.750564    -0.725975
 C     2.182995     4.227151     0.394962
 H     1.568431     4.943503     0.945613
 C     3.532943     4.488041     0.162875
 H     3.985899     5.412965     0.527743
 H    -1.950881    -1.723246    -2.881378
 H    -2.593422    -0.058798    -3.114206
 H    -0.824193    -0.356432    -3.007629
 H    -3.606983    -0.813010     0.752605
 H    -3.696660    -1.972027    -0.575934
 C    -4.644965    -0.076283    -0.987858
 C    -5.195535    -0.441325    -2.223607
 H    -4.870675    -1.369699    -2.701438
 C    -5.097096     1.104594    -0.382069
 H    -4.685305     1.400715     0.586839
 C    -6.157829     0.354410    -2.842187
 H    -6.577471     0.048717    -3.803756
 C    -6.058349     1.901924    -0.998981
 H    -6.397689     2.817266    -0.507851
 C    -6.589960     1.531982    -2.233888
 H    -7.345665     2.155532    -2.717255
 H    -2.696858     1.726344    -1.226364
 H    -0.945811     1.711115    -1.229890
 C    -1.805589     1.958813     0.714528
 C    -1.396756     1.255571     1.853559
 H    -1.119793     0.191775     1.761818
 C    -2.167906     3.306205     0.860955
 H    -2.500362     3.868555    -0.016450
 C    -1.333147     1.884511     3.096824
 H    -1.010790     1.311286     3.969700
 C    -2.102399     3.936441     2.100736
 H    -2.385998     4.988078     2.189829
 C    -1.679334     3.227347     3.225644
 H    -1.627268     3.720089     4.199418
