  80
scf done:    -2442.974986
 C    -0.794792    -1.795568     3.380529
 H    -0.100293    -2.033981     4.201646
 H    -1.439222    -0.997316     3.794309
 C    -1.628768    -3.038172     3.082762
 H    -1.008339    -3.857492     2.686301
 H    -2.128332    -3.424622     3.989719
 H    -2.416718    -2.855111     2.334522
Ir     0.294407    -0.962103     1.713490
 C    -3.004801     0.368386     1.785497
 O    -1.558898     0.569637    -0.526176
 O    -2.711728    -1.628207     0.164352
 C     1.320992    -0.825545    -1.701213
 O     1.287169     1.464236    -0.533266
 O     3.085471    -0.178180     0.263131
 P     1.454755    -0.118188    -0.039528
 P    -1.746125    -0.430305     0.774988
 C     1.845926    -1.298370     2.721361
 O     2.766999    -1.487959     3.374116
 H    -3.239576    -0.300770     2.624222
 H    -2.592744     1.308962     2.176454
 H    -3.908728     0.562546     1.192306
 C    -2.574871     1.266607    -1.139039
 C    -2.836351     2.577773    -0.746128
 H    -2.242334     3.028173     0.051349
 C    -3.302596     0.677672    -2.168683
 H    -3.075361    -0.347128    -2.467566
 C    -3.839277     3.294181    -1.391042
 H    -4.039434     4.323312    -1.079922
 C    -4.303469     1.410766    -2.802897
 H    -4.874178     0.944883    -3.610927
 C    -4.591338     2.728028    -2.428822
 C    -5.649972     3.523955    -3.135738
 H    -6.215484     4.155193    -2.434212
 H    -6.363623     2.871599    -3.658705
 H    -5.203888     4.194770    -3.888927
 C    -2.261669    -2.640041    -0.651473
 C    -3.113618    -3.050298    -1.675858
 H    -4.081650    -2.557526    -1.785637
 C    -1.035266    -3.275788    -0.466115
 H    -0.372766    -2.955268     0.351171
 C    -2.727536    -4.085495    -2.522615
 H    -3.406143    -4.402383    -3.319426
 C    -0.663352    -4.304047    -1.328205
 H     0.299984    -4.798013    -1.172051
 C    -1.492368    -4.727155    -2.373270
 C    -1.063655    -5.816205    -3.313506
 H    -1.925737    -6.381792    -3.696099
 H    -0.381130    -6.525614    -2.823491
 H    -0.532160    -5.400887    -4.186357
 H     0.275400    -0.713559    -2.019229
 H     1.982967    -0.300613    -2.404101
 H     1.570472    -1.894677    -1.662890
 C     0.736382     2.519879     0.125624
 C     0.382600     2.512410     1.475926
 H     0.541464     1.607583     2.074471
 C     0.523047     3.671310    -0.636265
 H     0.801128     3.655123    -1.691558
 C    -0.205995     3.645097     2.036596
 H    -0.486653     3.620815     3.093768
 C    -0.052083     4.796044    -0.055675
 H    -0.218838     5.684921    -0.670694
 C    -0.436322     4.807088     1.291540
 C    -1.038345     6.031544     1.918483
 H    -1.650436     5.776132     2.795581
 H    -1.674485     6.578847     1.206915
 H    -0.256124     6.730894     2.258666
 C     4.049573     0.187696    -0.641521
 C     4.340352     1.532465    -0.872859
 H     3.774784     2.301158    -0.345208
 C     4.768534    -0.805232    -1.303690
 H     4.532099    -1.852156    -1.103211
 C     5.346397     1.870092    -1.772793
 H     5.566673     2.926545    -1.950447
 C     5.774444    -0.450253    -2.198941
 H     6.333411    -1.236689    -2.713637
 C     6.082523     0.890917    -2.451954
 C     7.186973     1.271931    -3.395006
 H     6.924918     2.163769    -3.983612
 H     7.418244     0.456982    -4.095735
 H     8.114158     1.506430    -2.845673
