  40
scf done:    -1519.433879
 C    -1.264192    -2.388144    -0.493718
 H    -1.363891    -3.132009     0.315521
 H    -2.289152    -2.023577    -0.676725
 C    -0.746839    -3.072905    -1.755854
 H     0.239255    -3.539147    -1.597927
 H    -1.430153    -3.869046    -2.106158
 H    -0.627279    -2.363438    -2.591826
Ir     0.074138    -0.799839     0.073945
 C    -2.069455     1.164006    -1.970844
 O    -3.149241     0.186443     0.199133
 O    -1.456140     2.077145     0.537581
 C     1.588047     1.947893     1.806115
 O     3.118338     0.664805     0.154071
 O     1.223023     2.043546    -0.905689
 P     1.500323     0.943875     0.299899
 P    -1.658565     0.664399    -0.282950
 C     1.210651    -2.104572     0.801713
 O     1.845427    -2.885887     1.358317
 H    -1.207254     1.722934    -2.361825
 H    -2.205843     0.251838    -2.568689
 H    -2.985413     1.769397    -2.016445
 C    -3.287958    -0.448626     1.458482
 H    -2.426299    -1.106404     1.662074
 H    -3.366719     0.299975     2.263826
 H    -4.208932    -1.046105     1.428567
 C    -2.407698     3.115431     0.462687
 H    -2.283302     3.706163    -0.460450
 H    -3.437524     2.724547     0.504879
 H    -2.244901     3.777156     1.324869
 H     1.811128     1.274433     2.645116
 H     2.363993     2.724121     1.748301
 H     0.594602     2.391537     1.957406
 C     3.581706    -0.163869    -0.890266
 H     2.877495    -0.990225    -1.089379
 H     3.715643     0.412642    -1.821000
 H     4.551464    -0.581299    -0.585428
 C     1.969216     3.233595    -1.005615
 H     1.583378     4.008645    -0.321307
 H     3.036919     3.063589    -0.787761
 H     1.875689     3.602499    -2.037118
