  74
scf done:    -2761.167339
 C    -1.171720    -2.520021     2.209095
 H    -0.795270    -2.908055     3.169703
 H    -2.139382    -2.049852     2.449761
 C    -1.395950    -3.673462     1.234606
 H    -0.466816    -4.234261     1.043657
 H    -2.138500    -4.394785     1.622013
 H    -1.769125    -3.326673     0.258047
Ir     0.232341    -1.144299     1.345260
 C    -1.682687     1.294896     2.913615
 O    -1.183932     1.614280     0.240393
 O    -3.022360    -0.006224     1.137726
 C     2.480755     1.646964     1.040794
 O     3.071326    -0.741960    -0.129024
 O     1.342299     0.902288    -1.169740
 P     1.738379     0.170250     0.275098
 P    -1.429937     0.403728     1.347368
 C     1.604506    -2.203341     2.080006
 O     2.439567    -2.761327     2.635656
 H    -1.922964     0.503410     3.641420
 C    -0.479452     2.109796     3.354748
 H    -0.269806     2.931141     2.652677
 H     0.417207     1.477405     3.428826
 H    -2.584880     1.916751     2.801420
 H    -0.661928     2.558586     4.341859
 C    -1.803909     2.826758     0.127234
 C    -0.991849     3.917202    -0.194130
 H     0.080656     3.752956    -0.315377
 C    -3.183885     2.992056     0.264998
 H    -3.813157     2.131360     0.493224
 C    -1.552556     5.178440    -0.367178
 H    -0.938943     6.044935    -0.619878
 C    -3.744481     4.256967     0.099103
 H    -4.819610     4.414680     0.201568
 C    -2.925621     5.334615    -0.213030
 F    -3.466184     6.541161    -0.373684
 C    -3.462629    -0.954793     0.247259
 C    -4.455505    -1.828713     0.688635
 H    -4.812806    -1.746695     1.716327
 C    -2.975563    -1.030430    -1.056066
 H    -2.205437    -0.336750    -1.398235
 C    -4.964757    -2.792038    -0.174343
 H    -5.737502    -3.492800     0.145913
 C    -3.486123    -1.995746    -1.923520
 H    -3.137463    -2.073053    -2.953586
 C    -4.469755    -2.864704    -1.472028
 F    -4.957285    -3.785770    -2.302482
 H     1.629622     2.321534     1.224599
 C     3.217950     1.313610     2.328816
 H     4.118992     0.715408     2.129991
 H     2.580293     0.737390     3.016843
 H     3.135432     2.138782     0.304269
 H     3.533824     2.232210     2.844125
 C     4.283122    -0.290732    -0.578424
 C     5.422375    -0.786131     0.059605
 H     5.294732    -1.483082     0.890300
 C     4.406704     0.589163    -1.656222
 H     3.512601     0.961054    -2.156836
 C     6.687537    -0.400412    -0.370963
 H     7.592020    -0.776969     0.109968
 C     5.673578     0.982094    -2.083475
 H     5.798829     1.667978    -2.923215
 C     6.798020     0.485005    -1.437309
 F     8.007910     0.860993    -1.849859
 C     0.555549     0.285848    -2.102095
 C    -0.302473     1.087909    -2.855245
 H    -0.340762     2.158995    -2.652064
 C     0.615939    -1.091870    -2.326803
 H     1.297594    -1.712236    -1.742101
 C    -1.106766     0.514776    -3.836076
 H    -1.794361     1.117217    -4.431954
 C    -0.193128    -1.667702    -3.303027
 H    -0.172901    -2.742458    -3.490454
 C    -1.041584    -0.857876    -4.044411
 F    -1.839569    -1.417273    -4.959526
