  88
scf done:    -2147.975087
 C    -1.706445    -2.865620    -1.070949
 H    -1.387934    -3.908647    -0.911846
 H    -2.647225    -2.763381    -0.506808
 C    -1.959630    -2.626389    -2.555683
 H    -1.046256    -2.768134    -3.156350
 H    -2.722212    -3.319355    -2.959256
 H    -2.322558    -1.603781    -2.741652
Ir    -0.212741    -1.475704    -0.372697
 C    -1.992920     1.501770     0.866896
 O    -3.228376    -0.188754    -0.820462
 O    -2.861151    -0.967976     1.525796
 C     3.089716    -0.674649     0.431056
 O     1.776214     1.188197    -0.979230
 O     1.112794     0.984438     1.452697
 P     1.411778     0.026477     0.146656
 P    -2.048795    -0.234880     0.298893
 C     0.962445    -2.918947    -0.486741
 O     1.627885    -3.858706    -0.467290
 H    -3.004071     1.757497     1.228203
 H    -1.303787     1.556502     1.723013
 C    -1.546918     2.455454    -0.234786
 H    -0.460562     2.347523    -0.378055
 H    -2.011730     2.167247    -1.193461
 C    -1.892721     3.906230     0.071819
 H    -1.523138     4.168436     1.079207
 H    -2.992163     4.012722     0.123219
 C    -1.336322     4.895654    -0.941480
 H    -0.234749     4.815286    -0.955046
 H    -1.667658     4.602951    -1.953583
 C    -1.737530     6.335090    -0.663781
 H    -1.314489     7.026732    -1.407861
 H    -1.389375     6.661208     0.329604
 H    -2.832711     6.455249    -0.682739
 C    -4.599525     0.108235    -0.531252
 H    -4.675036     0.498780     0.498895
 C    -5.392415    -1.179251    -0.618840
 H    -5.018070    -1.900847     0.120146
 H    -5.287756    -1.621934    -1.620918
 H    -6.459709    -0.993936    -0.424111
 C    -5.056665     1.171302    -1.508304
 H    -4.466500     2.092404    -1.392753
 H    -4.936251     0.812970    -2.541912
 H    -6.116760     1.417038    -1.346034
 C    -2.525688    -0.881876     2.910415
 H    -2.609355     0.177762     3.220811
 C    -1.116576    -1.367463     3.194072
 H    -0.362525    -0.747506     2.686748
 H    -0.989559    -2.400910     2.839333
 H    -0.922037    -1.333067     4.277120
 C    -3.582719    -1.684183     3.640155
 H    -4.588053    -1.312449     3.394923
 H    -3.523402    -2.742092     3.343122
 H    -3.438151    -1.615655     4.728329
 H     3.035787    -1.239898     1.377492
 H     3.158219    -1.441704    -0.358826
 C     4.327971     0.210169     0.356635
 H     4.214993     0.916090    -0.482612
 H     4.424834     0.823607     1.266432
 C     5.607359    -0.596873     0.176256
 H     5.531081    -1.196719    -0.748981
 H     5.701168    -1.329572     0.998478
 C     6.861647     0.263745     0.119049
 H     6.755189     1.001006    -0.696529
 H     6.935798     0.857130     1.047904
 C     8.137388    -0.538844    -0.078250
 H     9.025337     0.110334    -0.114698
 H     8.106243    -1.113139    -1.018116
 H     8.285994    -1.260428     0.741174
 C     1.291142     1.077031    -2.321567
 H     0.249719     0.702684    -2.280706
 C     2.125287     0.080541    -3.104040
 H     2.041584    -0.922269    -2.658869
 H     3.184147     0.383931    -3.115018
 H     1.771004     0.012153    -4.143468
 C     1.320490     2.467560    -2.916742
 H     0.699908     3.157812    -2.329090
 H     2.350473     2.856564    -2.931271
 H     0.940219     2.452531    -3.948720
 C     1.994306     2.002054     1.941459
 H     2.803041     2.156216     1.210139
 C     2.570382     1.542595     3.266182
 H     3.116896     0.595283     3.153231
 H     1.760796     1.381666     3.994587
 H     3.262662     2.293819     3.675390
 C     1.216861     3.296529     2.057907
 H     0.842930     3.610624     1.074350
 H     0.359847     3.175567     2.738497
 H     1.859801     4.096620     2.454375
