  90
scf done:    -1925.745158
 C    -0.931603    -2.786508    -1.152871
 H    -1.911609    -3.088175    -0.737986
 H    -1.156392    -2.355716    -2.146448
 C    -0.071909    -4.028170    -1.364360
 H     0.085451    -4.583199    -0.425474
 H    -0.524047    -4.733884    -2.086378
 H     0.928072    -3.769552    -1.750172
Ir    -0.028100    -1.259292     0.037058
 C    -1.036950     1.126756    -2.510824
 C    -3.157810    -0.451009    -1.345936
 C    -1.973785     1.690380     0.165646
 C     0.836542     1.101701     2.598995
 C     3.003633    -0.394902     1.424868
 C     1.815887     1.755091    -0.118467
 P     1.366781     0.341346     0.996932
 P    -1.519868     0.283103    -0.937799
 C     0.571798    -2.534600     1.236326
 O     0.830793    -3.269834     2.091789
 H    -0.299935     1.896776    -2.229584
 C    -0.437991     0.171772    -3.532813
 H    -1.165211    -0.588777    -3.855085
 H     0.424804    -0.365325    -3.108918
 H    -1.910612     1.657470    -2.924161
 H    -0.104475     0.713204    -4.431269
 H    -3.769906     0.294497    -1.880696
 H    -2.961288    -1.272378    -2.052020
 C    -3.879516    -0.987946    -0.116531
 H    -3.162073    -1.566462     0.491314
 H    -4.210164    -0.148236     0.520558
 C    -5.079129    -1.858360    -0.460868
 H    -4.738440    -2.709568    -1.077725
 H    -5.782324    -1.288350    -1.096040
 C    -5.814734    -2.385516     0.763017
 H    -5.103173    -2.946039     1.394339
 H    -6.151339    -1.532351     1.378889
 C    -7.002749    -3.269487     0.419920
 H    -7.512578    -3.635393     1.324055
 H    -6.688784    -4.149795    -0.163716
 H    -7.746355    -2.724255    -0.183816
 H    -2.239502     1.232477     1.132928
 H    -1.041955     2.249335     0.347937
 C    -3.069420     2.636734    -0.302736
 H    -2.802443     3.071898    -1.281299
 H    -4.006072     2.076991    -0.465183
 C    -3.331329     3.763109     0.688650
 H    -2.396413     4.329736     0.853455
 H    -3.592820     3.328863     1.670816
 C    -4.431034     4.719848     0.249780
 H    -4.167108     5.147023    -0.734033
 H    -5.361891     4.148493     0.085907
 C    -4.687024     5.841531     1.243171
 H    -5.486189     6.515110     0.898882
 H    -3.782523     6.451316     1.399260
 H    -4.987746     5.443804     2.225785
 H     0.695534     0.227957     3.257833
 C     1.703598     2.155343     3.269928
 H     1.746389     3.084405     2.682239
 H     2.736197     1.807843     3.424838
 H    -0.178754     1.488413     2.419371
 H     1.296278     2.417077     4.259193
 H     3.680092     0.370934     1.838812
 H     2.797517    -1.112649     2.237363
 C     3.648204    -1.118436     0.249651
 H     2.899200    -1.793674    -0.201032
 H     3.907953    -0.392950    -0.542091
 C     4.889429    -1.908841     0.636168
 H     4.619411    -2.641976     1.417727
 H     5.632297    -1.233930     1.100555
 C     5.529684    -2.636551    -0.537658
 H     4.779081    -3.302888    -0.997836
 H     5.793727    -1.901292    -1.318798
 C     6.761558    -3.439549    -0.152835
 H     7.199996    -3.954039    -1.021397
 H     6.517826    -4.206755     0.599585
 H     7.542128    -2.792704     0.279675
 H     1.780683     1.332546    -1.136736
 H     0.978311     2.471901    -0.065172
 C     3.138827     2.483090     0.083652
 H     3.215919     2.872263     1.110933
 H     3.973890     1.772440    -0.031290
 C     3.327451     3.629349    -0.901533
 H     2.498814     4.352289    -0.785709
 H     3.241465     3.241372    -1.933122
 C     4.656103     4.355453    -0.743620
 H     4.738979     4.735821     0.290024
 H     5.479783     3.628958    -0.859764
 C     4.840336     5.499899    -1.726891
 H     5.808707     6.003759    -1.587776
 H     4.050556     6.259333    -1.608972
 H     4.798331     5.142331    -2.768344
