  86
scf done:    -2521.538366
 C     0.975213    -2.957261     1.061490
 H     1.486533    -3.649790     0.371356
 H     1.778610    -2.541004     1.689474
 C    -0.000397    -3.724376     1.947827
 H    -0.777131    -4.243458     1.363095
 H     0.511935    -4.488762     2.560808
 H    -0.530925    -3.057527     2.648298
Ir    -0.024290    -1.422453    -0.062798
 C     1.107998     0.973553     2.353758
 O     2.972849    -0.396158     1.115540
 O     1.676274     1.355710    -0.298196
 C    -0.932015     1.142728    -2.444296
 O    -2.875532    -0.163653    -1.280486
 O    -1.478020     1.400989     0.266721
 P    -1.301287     0.230489    -0.912225
 P     1.437808     0.123036     0.785623
 C    -0.850135    -2.813448    -1.032316
 O    -1.259133    -3.650987    -1.701739
 H     0.176943     1.529896     2.159909
 C     0.937015    -0.010844     3.502150
 H     1.868168    -0.562960     3.695084
 H     0.151222    -0.748530     3.277940
 H     1.907684     1.704430     2.548789
 H     0.655009     0.518300     4.424023
 C     3.680574    -1.250606     0.304501
 C     3.414974    -1.373257    -1.055597
 H     2.616365    -0.782385    -1.510059
 C     4.698172    -1.988676     0.907593
 H     4.878790    -1.871069     1.977316
 C     4.152204    -2.270309    -1.838458
 C     3.825518    -2.423716    -3.295026
 H     2.800946    -2.807636    -3.425338
 H     3.877474    -1.456862    -3.819710
 H     4.514879    -3.119347    -3.793114
 C     5.442308    -2.865967     0.127760
 H     6.240457    -3.452539     0.588856
 C     5.169241    -3.012505    -1.232948
 H     5.753942    -3.714007    -1.833185
 C     2.434862     2.490493    -0.167947
 C     3.615305     2.540480     0.572352
 H     3.968679     1.645315     1.085113
 C     1.989048     3.616678    -0.865228
 H     1.072663     3.553202    -1.453683
 C     4.355533     3.727954     0.644295
 C     5.619629     3.766394     1.453262
 H     5.408104     3.626982     2.525660
 H     6.307279     2.960697     1.153084
 H     6.144568     4.724379     1.336069
 C     2.726207     4.793120    -0.798072
 H     2.381187     5.675219    -1.342785
 C     3.898453     4.854057    -0.045168
 H     4.470145     5.784124     0.000652
 H    -0.705945     0.327875    -3.153474
 C    -1.963007     2.099739    -3.023692
 H    -2.106523     2.986303    -2.391748
 H    -2.937487     1.604433    -3.135703
 H     0.036083     1.625897    -2.236513
 H    -1.637535     2.443461    -4.017601
 C    -3.584392    -1.093952    -0.567087
 C    -3.422996    -1.245265     0.810007
 H    -2.716990    -0.605424     1.344084
 C    -4.487298    -1.889289    -1.271347
 H    -4.587441    -1.751026    -2.349006
 C    -4.146934    -2.221983     1.503720
 C    -3.915495    -2.419011     2.973072
 H    -2.962180    -2.945811     3.143895
 H    -3.854215    -1.456749     3.503399
 H    -4.715271    -3.016003     3.433033
 C    -5.221350    -2.847011    -0.579954
 H    -5.929765    -3.477581    -1.122391
 C    -5.050954    -3.017698     0.793881
 H    -5.626068    -3.781775     1.322802
 C    -2.207765     2.559820     0.205837
 C    -3.597160     2.532467     0.110083
 H    -4.111135     1.571583     0.058812
 C    -1.520949     3.771016     0.301822
 H    -0.433795     3.762860     0.393757
 C    -4.325506     3.727126     0.071102
 C    -5.820470     3.687214    -0.059336
 H    -6.119624     3.287123    -1.041514
 H    -6.269360     3.033042     0.703833
 H    -6.262146     4.687832     0.045250
 C    -2.243743     4.959270     0.271007
 H    -1.715738     5.913205     0.343769
 C    -3.632924     4.940199     0.148558
 H    -4.189980     5.880100     0.121817
