  86
scf done:    -2521.540009
 C    -0.715344    -2.585077    -2.227925
 H    -0.760628    -3.542829    -1.678556
 H    -1.766808    -2.263690    -2.307641
 C    -0.161282    -2.840287    -3.625668
 H     0.836982    -3.305822    -3.597752
 H    -0.813836    -3.515777    -4.208319
 H    -0.057434    -1.913503    -4.211486
Ir     0.437771    -1.239457    -0.989895
 C    -1.929989     1.111013    -2.189351
 O    -2.934421    -0.738980    -0.653744
 O    -1.487117     0.992792     0.561550
 C     1.313820     0.014042     2.169231
 O     3.273906    -0.306008     0.246879
 O     1.725616     1.732775     0.197278
 P     1.665311     0.074680     0.380609
 P    -1.481008     0.032515    -0.796801
 C     1.891877    -2.397846    -1.279542
 O     2.770078    -3.116416    -1.442677
 H    -1.339886     2.029331    -2.050144
 C    -1.638502     0.505030    -3.552876
 H    -2.240193    -0.395006    -3.741799
 H    -0.578547     0.224932    -3.636779
 H    -2.994687     1.362803    -2.071764
 H    -1.862267     1.239832    -4.340041
 C    -3.254835    -1.612261     0.361177
 C    -2.342830    -2.538465     0.861040
 H    -1.330248    -2.574330     0.442084
 C    -4.560507    -1.510701     0.864801
 C    -5.509738    -0.498818     0.302327
 H    -5.133640     0.524654     0.458022
 H    -5.632000    -0.631305    -0.783632
 H    -6.496515    -0.579421     0.777731
 C    -2.727562    -3.384986     1.899554
 H    -2.012023    -4.109828     2.294323
 C    -4.915820    -2.374759     1.903857
 H    -5.927523    -2.310459     2.313662
 C    -4.014491    -3.303107     2.424641
 H    -4.321246    -3.963546     3.238766
 C    -2.568434     1.675522     1.075773
 C    -3.156923     2.723850     0.367273
 H    -2.746045     3.015440    -0.597517
 C    -3.023091     1.320919     2.357243
 C    -2.343215     0.263164     3.169431
 H    -2.103912    -0.625798     2.571440
 H    -1.398110     0.644849     3.589147
 H    -2.978734    -0.051240     4.007629
 C    -4.245302     3.406907     0.904871
 H    -4.702665     4.222732     0.340643
 C    -4.120144     2.022635     2.868425
 H    -4.495381     1.748335     3.857903
 C    -4.737903     3.047839     2.156336
 H    -5.595707     3.571113     2.584160
 H     1.609985    -1.000808     2.482716
 C     1.859090     1.088700     3.096669
 H     1.624133     2.091014     2.712368
 H     2.948022     1.022138     3.219855
 H     0.213053     0.020247     2.173533
 H     1.400307     0.988112     4.092710
 C     4.284751     0.104266     1.079300
 C     4.705291     1.433239     1.093996
 H     4.193865     2.158175     0.460543
 C     4.907742    -0.874992     1.868216
 C     4.458073    -2.302451     1.794207
 H     5.093461    -2.947534     2.415783
 H     3.417708    -2.419883     2.137355
 H     4.484246    -2.673826     0.758724
 C     5.747527     1.814233     1.935722
 H     6.073043     2.856828     1.955165
 C     5.953286    -0.463671     2.699947
 H     6.451678    -1.210242     3.324381
 C     6.370084     0.866092     2.744733
 H     7.188455     1.158570     3.406339
 C     1.170460     2.490957    -0.794465
 C     0.280144     3.487567    -0.390019
 H     0.034585     3.559256     0.670600
 C     1.533596     2.344454    -2.145522
 C     2.502273     1.297392    -2.599120
 H     3.358593     1.207193    -1.915827
 H     2.013736     0.305510    -2.616000
 H     2.875502     1.521409    -3.607443
 C    -0.279645     4.353167    -1.323977
 H    -0.972456     5.131446    -0.995678
 C     0.944911     3.223681    -3.063918
 H     1.213570     3.124602    -4.119077
 C     0.048641     4.215659    -2.672544
 H    -0.383846     4.885819    -3.418666
