  82
scf done:    -2220.741033
 C    -1.391850    -3.151286    -0.317462
 H    -1.723586    -3.772668     0.531966
 H    -2.327802    -2.795715    -0.775380
 C    -0.648786    -4.034467    -1.316471
 H     0.254613    -4.484023    -0.873108
 H    -1.277021    -4.868017    -1.682721
 H    -0.319392    -3.470849    -2.205570
Ir    -0.127790    -1.552247     0.347300
 C    -0.889728     0.605077    -2.422291
 C    -3.222718    -0.423178    -1.177714
 C    -1.728704     1.580303     0.231509
 C     1.483535     0.625817     2.621711
 C     3.241677    -0.899521     0.875733
 C     1.916027     1.402584    -0.210289
 P     1.584720    -0.060812     0.902272
 P    -1.476649     0.030428    -0.768146
 C     0.500694    -2.739497     1.624715
 O     0.804940    -3.428518     2.499698
 H    -0.007421     1.239833    -2.253162
 C    -0.522663    -0.558829    -3.331578
 H    -1.376986    -1.229296    -3.510597
 H     0.283024    -1.161808    -2.886339
 H    -1.660777     1.252762    -2.869719
 H    -0.176518    -0.194267    -4.310417
 H    -3.165752    -1.345472    -1.780076
 H    -3.614758     0.363309    -1.841777
 C    -4.156163    -0.614976    -0.011330
 C    -5.494953    -0.219896    -0.136197
 H    -5.835785     0.226786    -1.074972
 C    -3.739315    -1.183520     1.199249
 H    -2.693569    -1.492528     1.316148
 C    -6.394956    -0.388865     0.913727
 H    -7.434730    -0.075029     0.792751
 C    -4.638878    -1.348792     2.251120
 H    -4.291840    -1.792933     3.187306
 C    -5.968388    -0.954205     2.114549
 H    -6.670711    -1.085266     2.941219
 H    -0.753031     1.836773     0.664800
 H    -2.365196     1.260744     1.070679
 C    -2.323026     2.743579    -0.501779
 C    -3.710953     2.922998    -0.562821
 H    -4.363868     2.223696    -0.034418
 C    -1.503049     3.668044    -1.163068
 H    -0.415633     3.560479    -1.114063
 C    -4.262090     3.984274    -1.278170
 H    -5.347407     4.107937    -1.310497
 C    -2.052015     4.730887    -1.876584
 H    -1.393404     5.441580    -2.381574
 C    -3.435616     4.889821    -1.941691
 H    -3.867848     5.722905    -2.500795
 H     0.926640    -0.143420     3.179687
 C     2.757777     1.004001     3.362763
 H     3.353318     1.755562     2.826613
 H     3.395166     0.125069     3.539166
 H     0.795281     1.485244     2.551428
 H     2.506758     1.423301     4.349427
 H     3.146352    -1.761719     1.557602
 H     3.997944    -0.227687     1.307977
 C     3.678262    -1.345380    -0.494940
 C     4.954115    -1.012652    -0.967127
 H     5.633979    -0.448259    -0.322209
 C     2.838480    -2.096406    -1.329762
 H     1.832819    -2.359972    -0.971837
 C     5.377384    -1.404137    -2.237076
 H     6.378205    -1.132918    -2.581988
 C     3.258404    -2.487041    -2.598687
 H     2.584334    -3.072510    -3.229276
 C     4.527968    -2.139746    -3.060623
 H     4.855915    -2.446046    -4.056852
 H     0.933838     1.809985    -0.478714
 H     2.339207     0.959391    -1.125976
 C     2.784718     2.489870     0.335347
 C     4.177354     2.450226     0.192263
 H     4.630054     1.638718    -0.381842
 C     2.217560     3.562963     1.036383
 H     1.130089     3.627293     1.137284
 C     4.981441     3.432712     0.765791
 H     6.066423     3.382965     0.645355
 C     3.019267     4.546655     1.610018
 H     2.557035     5.372296     2.156353
 C     4.406539     4.479600     1.485613
 H     5.037198     5.248546     1.937551
