  82
scf done:    -2220.719009
 C     1.201942    -1.361401    -2.399305
 H     0.830607    -1.295033    -3.434311
 H     2.248077    -1.024235    -2.439936
 C     1.150250    -2.815337    -1.943033
 H     0.120664    -3.209217    -1.937320
 H     1.747015    -3.476125    -2.599202
 H     1.556651    -2.944816    -0.924186
Ir    -0.014595    -0.264503    -1.046872
 C     1.511945    -1.008641     2.086961
 C     3.419661    -0.767188    -0.125088
 C     2.165522     1.641024     0.903006
 C    -1.424680     1.339419     1.939954
 C    -3.212645     1.016738    -0.347391
 C    -2.368817    -1.329043     1.225920
 P    -1.760464     0.249096     0.472250
 P     1.810406    -0.125214     0.478094
 C    -0.984859     0.306996    -2.509097
 O    -1.492941     0.787874    -3.427211
 H     1.461987    -2.074288     1.809356
 C     2.371546    -0.802607     3.320670
 H     2.434979     0.260431     3.595376
 H     3.394467    -1.183673     3.194005
 H     0.468946    -0.751206     2.319120
 H     1.925523    -1.339566     4.172438
 C     3.923878    -1.974942     0.374259
 H     3.377713    -2.516213     1.148576
 C     4.120319    -0.093610    -1.151779
 C     3.624665     1.177905    -1.777182
 H     3.862583     2.056332    -1.156820
 H     2.530516     1.160970    -1.906814
 H     4.088306     1.324686    -2.762490
 C     5.120302    -2.510086    -0.092757
 H     5.492578    -3.452179     0.315932
 C     5.323347    -0.650093    -1.603464
 H     5.868189    -0.134948    -2.399333
 C     5.829430    -1.837080    -1.083310
 H     6.770602    -2.242306    -1.462346
 C     1.220599     2.563748     0.428315
 H     0.400038     2.166312    -0.181556
 C     3.308802     2.118288     1.583213
 C     4.501249     1.287254     1.964572
 H     5.296500     1.418118     1.211875
 H     4.297932     0.216864     2.011289
 H     4.908847     1.611789     2.933423
 C     1.337007     3.926222     0.672231
 H     0.585779     4.617532     0.282916
 C     3.394699     3.496413     1.836474
 H     4.269938     3.870189     2.375541
 C     2.426058     4.394077     1.403594
 H     2.536196     5.460240     1.617033
 H    -1.155123     2.319778     1.519563
 C    -2.424049     1.488026     3.072251
 H    -2.671489     0.516726     3.524086
 H    -3.360749     1.960672     2.744868
 H    -0.471828     0.954583     2.332025
 H    -1.994604     2.122382     3.863626
 C    -3.461428     2.382825    -0.155625
 H    -2.835388     2.960294     0.526635
 C    -4.011684     0.288020    -1.258378
 C    -3.803183    -1.170387    -1.547409
 H    -4.253055    -1.806750    -0.769079
 H    -2.734501    -1.430354    -1.590048
 H    -4.260964    -1.438384    -2.509519
 C    -4.494751     3.033255    -0.822756
 H    -4.666228     4.098896    -0.654327
 C    -5.045236     0.964818    -1.916127
 H    -5.662839     0.406644    -2.625053
 C    -5.297511     2.316581    -1.704927
 H    -6.111950     2.810901    -2.239556
 C    -1.475862    -2.404937     1.089152
 H    -0.564917    -2.242903     0.501929
 C    -3.600614    -1.543631     1.882895
 C    -4.716513    -0.540296     1.976995
 H    -5.550871    -0.851353     1.326961
 H    -4.430052     0.464376     1.660463
 H    -5.108265    -0.486810     3.003936
 C    -1.740190    -3.657196     1.628668
 H    -1.023786    -4.471558     1.499156
 C    -3.844964    -2.814400     2.427093
 H    -4.795412    -2.983960     2.941514
 C    -2.933985    -3.858144     2.317729
 H    -3.165892    -4.832896     2.753987
