  84
scf done:    -1847.161680
 C    -1.649326    -1.844783    -2.184634
 H    -1.163238    -2.318814    -3.052413
 H    -2.167953    -2.669791    -1.675251
 C    -2.671968    -0.834161    -2.694757
 H    -2.193557    -0.002442    -3.237951
 H    -3.399280    -1.293490    -3.390865
 H    -3.258457    -0.380781    -1.878041
Ir    -0.224767    -0.788329    -0.987724
 C    -2.456056     0.413626     1.630077
 C    -2.968145    -2.298369     0.791408
 C    -0.623091    -1.732357     2.412200
 C     2.835513     0.062883     0.499729
 C     1.956988     1.733956    -1.781219
 C     0.777293     2.134843     0.971520
 P     1.326011     0.836695    -0.256497
 P    -1.569564    -1.056170     0.935520
 C     1.066367    -1.407154    -2.149580
 O     1.909814    -1.929845    -2.747303
 H    -2.967924     0.146477     2.569257
 H    -1.684342     1.151357     1.894568
 C    -3.424185     1.039265     0.636278
 H    -2.885755     1.250036    -0.304017
 H    -4.212261     0.316250     0.363304
 C    -4.074429     2.314887     1.151661
 H    -3.286101     3.034968     1.437025
 H    -4.629158     2.095526     2.082384
 C    -5.010274     2.966516     0.143503
 H    -4.448374     3.177520    -0.783470
 H    -5.793533     2.242758    -0.143377
 C    -5.654827     4.244351     0.655246
 H    -6.323381     4.691766    -0.095652
 H    -4.894585     4.998801     0.914823
 H    -6.252109     4.055857     1.561981
 H    -3.452247    -2.015298    -0.157980
 C    -2.441985    -3.723520     0.642552
 H    -3.248625    -4.386012     0.290657
 H    -1.613574    -3.785671    -0.076691
 H    -2.091905    -4.121653     1.607910
 C    -4.007106    -2.227517     1.904586
 H    -4.543038    -1.268644     1.931276
 H    -4.761441    -3.017399     1.757397
 H    -3.559958    -2.393720     2.898551
 H    -1.378048    -2.305089     2.979474
 C     0.486764    -2.679276     1.965314
 H     1.023759    -3.073887     2.843531
 H     0.108807    -3.530243     1.386449
 H     1.200106    -2.149632     1.317510
 C    -0.063280    -0.667125     3.347423
 H    -0.829150     0.023181     3.727475
 H     0.402993    -1.153719     4.219032
 H     0.722007    -0.073501     2.857013
 H     2.558124    -0.133854     1.549887
 H     2.877731    -0.932053     0.027693
 C     4.216962     0.700353     0.428841
 H     4.507851     0.835863    -0.626110
 H     4.213396     1.706021     0.878262
 C     5.272731    -0.150417     1.123659
 H     5.270581    -1.163991     0.683446
 H     4.992267    -0.286434     2.184458
 C     6.675866     0.434529     1.042615
 H     6.949146     0.569660    -0.018908
 H     6.671108     1.448877     1.480071
 C     7.726251    -0.417436     1.736552
 H     8.728704     0.030186     1.660217
 H     7.777558    -1.425517     1.294705
 H     7.497444    -0.540396     2.807497
 H     2.606329     0.954196    -2.221630
 C     0.832853     2.003360    -2.781478
 H     1.259484     2.303294    -3.752213
 H     0.209175     1.109004    -2.932319
 H     0.177690     2.819742    -2.443404
 C     2.790221     2.995684    -1.575487
 H     3.631520     2.859282    -0.885996
 H     3.205954     3.320232    -2.543461
 H     2.174533     3.826899    -1.200926
 H     0.264193     1.504032     1.714239
 C     1.850089     2.914965     1.721735
 H     1.373653     3.566423     2.473213
 H     2.540773     2.250850     2.261111
 H     2.444577     3.559981     1.060662
 C    -0.277913     3.046268     0.354579
 H    -1.026005     2.472629    -0.213103
 H    -0.805181     3.609719     1.141228
 H     0.169688     3.782619    -0.328604
