 100
scf done:    -2456.438880
 C    -2.370800    -0.237617    -2.759040
 H    -2.187219    -0.584765    -3.788584
 H    -3.119744    -0.932396    -2.346361
 C    -2.941589     1.174767    -2.808441
 H    -2.230062     1.890461    -3.251497
 H    -3.870625     1.225725    -3.406996
 H    -3.194380     1.556430    -1.804895
Ir    -0.586012    -0.239002    -1.588112
 C    -1.851709     0.950821     1.593654
 C    -3.690397    -0.761413     0.168089
 C    -1.363596    -1.902551     1.324200
 C     2.527303    -1.438470    -0.630021
 C     2.450298     1.440490    -1.156116
 C     1.541072     0.419152     1.336335
 P     1.451972     0.058335    -0.464426
 P    -1.897083    -0.432042     0.370978
 C     0.304044    -0.754055    -3.122421
 O     0.832802    -1.210515    -4.043009
 H    -2.744066     0.903381     2.238751
 H    -0.974995     0.770394     2.235133
 C    -1.718958     2.310656     0.919898
 H    -0.797735     2.309132     0.311821
 H    -2.534520     2.470195     0.193906
 C    -1.687849     3.461867     1.912560
 H    -0.944066     3.239211     2.696809
 H    -2.660709     3.527044     2.433714
 C    -1.361550     4.802679     1.270831
 H    -0.378830     4.729560     0.771178
 H    -2.086775     5.005814     0.463199
 C    -1.353131     5.959323     2.256926
 H    -1.106572     6.912618     1.765379
 H    -0.613213     5.796333     3.057284
 H    -2.335955     6.079046     2.740701
 C    -4.116521    -2.053655    -0.163242
 H    -3.389264    -2.864885    -0.242973
 C    -4.635439     0.262291     0.262808
 H    -4.320427     1.277115     0.518066
 C    -5.466268    -2.302865    -0.384872
 H    -5.796759    -3.313659    -0.635793
 C    -5.996541     0.027776     0.031562
 C    -6.982384     1.157793     0.100345
 H    -6.776889     1.821343     0.953831
 H    -6.931560     1.776226    -0.811186
 H    -8.013866     0.789771     0.193591
 C    -6.399115    -1.270991    -0.289875
 H    -7.458004    -1.477078    -0.468445
 C    -1.638042    -2.047489     2.686766
 H    -2.210977    -1.287629     3.222492
 C    -0.645048    -2.897263     0.653755
 H    -0.447078    -2.747739    -0.415314
 C    -1.162507    -3.165592     3.367532
 H    -1.367595    -3.279858     4.434900
 C    -0.161172    -4.025481     1.325262
 C     0.655165    -5.056500     0.600864
 H     0.476130    -6.066935     0.996459
 H     0.431335    -5.060604    -0.475089
 H     1.734018    -4.851406     0.708288
 C    -0.425887    -4.140238     2.695582
 H    -0.055414    -5.011439     3.243536
 H     1.922440    -2.249245    -0.190236
 H     2.547027    -1.647907    -1.712095
 C     3.931644    -1.443880    -0.049173
 H     4.570275    -0.748155    -0.617095
 H     3.913463    -1.071630     0.989893
 C     4.560111    -2.831449    -0.070430
 H     4.554439    -3.221523    -1.104421
 H     3.927322    -3.525926     0.513128
 C     5.979900    -2.864981     0.476989
 H     6.609192    -2.174035    -0.111504
 H     5.978980    -2.463534     1.506030
 C     6.598034    -4.253690     0.468718
 H     7.623213    -4.245972     0.868930
 H     6.642715    -4.664626    -0.552715
 H     6.008330    -4.956875     1.078947
 C     1.949599     2.146073    -2.253148
 H     0.975793     1.862131    -2.663299
 C     3.682887     1.823118    -0.605445
 H     4.062175     1.310024     0.281171
 C     2.682869     3.200910    -2.797591
 H     2.285703     3.751472    -3.653777
 C     4.429699     2.873241    -1.142201
 C     5.757225     3.257838    -0.555312
 H     5.928889     2.761050     0.409990
 H     6.584117     2.975295    -1.227385
 H     5.827447     4.345033    -0.397226
 C     3.910778     3.556924    -2.251348
 H     4.477676     4.386849    -2.683332
 C     1.472009    -0.617540     2.274923
 H     1.419523    -1.658887     1.952738
 C     1.592106     1.742357     1.796925
 H     1.652896     2.560333     1.074617
 C     1.441735    -0.324840     3.637099
 H     1.373317    -1.142014     4.358980
 C     1.578123     2.049287     3.160057
 C     1.686345     3.471221     3.630464
 H     2.687500     3.671559     4.046402
 H     1.521444     4.181162     2.807900
 H     0.956921     3.691461     4.424892
 C     1.491291     0.994251     4.077944
 H     1.469796     1.211768     5.149523
