  76
scf done:    -2142.184016
 C    -1.466602    -2.659028    -1.426331
 H    -1.839877    -3.547610    -0.889407
 H    -2.380514    -2.148371    -1.777702
 C    -0.639893    -3.101492    -2.629663
 H     0.235706    -3.698073    -2.326383
 H    -1.225808    -3.719648    -3.335956
 H    -0.250580    -2.243310    -3.204372
Ir    -0.225111    -1.435274    -0.174516
 C    -1.734574     0.658434    -2.622896
 C    -3.377635    -0.016992    -0.342701
 C    -1.434145     1.971716    -0.067708
 C     1.403196     0.291600     2.533195
 C     3.136453    -0.871181     0.561553
 C     1.756329     1.464641    -0.095582
 P     1.455925    -0.134671     0.751828
 P    -1.636266     0.315841    -0.826882
 C     0.288820    -2.969403     0.735354
 O     0.472902    -3.899584     1.393801
 H    -0.757150     1.024200    -2.967794
 H    -1.950556    -0.292146    -3.129520
 H    -2.513586     1.391451    -2.874659
 C    -4.402610     0.860099    -0.719897
 H    -4.182408     1.745231    -1.322442
 C    -3.672019    -1.115030     0.464830
 H    -2.849406    -1.779150     0.751854
 C    -5.705734     0.615143    -0.302832
 H    -6.508746     1.296037    -0.595609
 C    -4.980617    -1.371457     0.894912
 C    -5.270785    -2.570865     1.749391
 H    -5.065736    -3.503535     1.199939
 H    -4.634157    -2.582988     2.647580
 H    -6.320555    -2.593178     2.073938
 C    -5.991364    -0.493115     0.496442
 H    -7.019885    -0.675768     0.820307
 C    -1.207975     3.140326    -0.794261
 H    -1.120841     3.115740    -1.881444
 C    -1.528485     2.038487     1.328209
 H    -1.725681     1.118639     1.888615
 C    -1.075679     4.355466    -0.121904
 H    -0.893508     5.269818    -0.691566
 C    -1.388269     3.245321     2.013826
 C    -1.449596     3.292642     3.513016
 H    -0.436661     3.342000     3.947502
 H    -1.996262     4.179103     3.867509
 H    -1.941522     2.399786     3.923983
 C    -1.163739     4.408861     1.264313
 H    -1.057248     5.368071     1.778830
 H     1.310973    -0.652912     3.087518
 H     2.292928     0.831583     2.886449
 H     0.506420     0.896383     2.722873
 C     3.311272    -1.997339    -0.244637
 H     2.439022    -2.449291    -0.724420
 C     4.257298    -0.275580     1.154209
 H     4.139505     0.630546     1.755634
 C     4.588675    -2.525362    -0.433764
 H     4.721978    -3.407647    -1.064526
 C     5.540723    -0.795916     0.980395
 C     6.732257    -0.162063     1.638251
 H     7.545311     0.008488     0.915839
 H     6.474486     0.804625     2.093312
 H     7.136892    -0.808994     2.433764
 C     5.689587    -1.935055     0.176137
 H     6.686994    -2.357593     0.023575
 C     1.964287     2.676995     0.560337
 H     1.923299     2.737828     1.649252
 C     1.792917     1.427205    -1.496259
 H     1.629720     0.468563    -2.001777
 C     2.209125     3.831563    -0.184529
 H     2.364399     4.782999     0.330005
 C     2.030656     2.574172    -2.253147
 C     2.038596     2.524542    -3.753674
 H     2.000274     1.489765    -4.121904
 H     1.172543     3.062921    -4.173438
 H     2.942021     2.998802    -4.167003
 C     2.244335     3.782258    -1.573053
 H     2.434818     4.695311    -2.144389
