  36
scf done:    -1218.677958
 C    -1.603478    -1.977245     0.201083
 H    -1.243339    -2.970255     0.515830
 H    -2.315944    -1.683952     0.991743
 C    -2.330373    -2.139476    -1.131659
 H    -1.646922    -2.481189    -1.924853
 H    -3.155450    -2.874571    -1.074898
 H    -2.773074    -1.195915    -1.496895
Ir     0.013926    -0.570330     0.097823
 C    -2.044199     1.851616    -1.516662
 C    -3.264379     0.765224     0.812587
 C    -1.200242     2.659488     1.098977
 C     2.454293     1.738402     1.330990
 C     3.351497     0.033821    -0.741692
 C     1.719372     2.237040    -1.379892
 P     1.820418     0.862261    -0.157609
 P    -1.612973     1.158694     0.126305
 C     1.127679    -2.035791     0.281461
 O     1.802208    -2.957342     0.443273
 H    -1.140228     2.243556    -2.001713
 H    -2.440869     1.042770    -2.146568
 H    -2.794817     2.652882    -1.433967
 H    -3.721065    -0.054633     0.242765
 H    -3.155179     0.437682     1.856041
 H    -3.917641     1.649904     0.771653
 H    -2.033358     3.379061     1.092391
 H    -0.985411     2.361098     2.135149
 H    -0.305315     3.146833     0.689652
 H     2.704233     0.985646     2.092570
 H     3.347661     2.342545     1.106066
 H     1.671726     2.387095     1.748178
 H     3.639397    -0.746626    -0.022795
 H     3.147408    -0.455050    -1.705271
 H     4.182913     0.746088    -0.858970
 H     1.445841     1.820083    -2.360210
 H     0.946120     2.961375    -1.087340
 H     2.680636     2.766918    -1.468683
