 104
scf done:    -2757.232089
 C     2.192557    -2.663182    -0.723916
 H     2.737789    -2.732207    -1.680792
 H     2.943519    -2.320798     0.005214
 C     1.691344    -4.041410    -0.304996
 H     0.998464    -4.478397    -1.042166
 H     2.522165    -4.759005    -0.173241
 H     1.146826    -4.006259     0.653490
Ir     0.582016    -1.251638    -0.912990
 C     1.277184     0.005951     2.328430
 O     3.298722     0.078528     0.640204
 O     1.356581     1.736511     0.182129
 C    -1.529119     1.575611    -1.728155
 O    -2.697847    -0.719658    -1.209608
 O    -1.526662     0.452746     0.794009
 P    -1.267820     0.028688    -0.804948
 P     1.649251     0.149324     0.559794
 C     0.001361    -2.270060    -2.388856
 O    -0.291840    -2.820021    -3.352476
 H     1.973094     0.612986     2.926270
 H     0.267529     0.435921     2.426202
 C     1.270714    -1.459692     2.750176
 H     0.677776    -2.035902     2.016736
 H     2.293975    -1.867767     2.691014
 C     0.701201    -1.677422     4.143293
 H    -0.322340    -1.261865     4.182791
 H     1.287800    -1.100198     4.881158
 C     0.668933    -3.143569     4.551340
 H     0.099799    -3.712504     3.795386
 H     1.694690    -3.550951     4.518270
 C     0.066672    -3.375126     5.927379
 H     0.058124    -4.443098     6.192728
 H    -0.972908    -3.012315     5.974113
 H     0.634396    -2.843066     6.707737
 C     4.112749    -0.005295    -0.463977
 C     3.696010     0.398595    -1.728288
 H     2.687887     0.795216    -1.869866
 C     5.395806    -0.510996    -0.257463
 H     5.689627    -0.822017     0.746368
 C     4.556740     0.273668    -2.825909
 C     4.079178     0.675835    -4.190504
 H     3.213299     0.066491    -4.495184
 H     3.754822     1.728244    -4.205190
 H     4.866050     0.551448    -4.947188
 C     6.256517    -0.618697    -1.343084
 H     7.263361    -1.016332    -1.195108
 C     5.840786    -0.236368    -2.619296
 H     6.523082    -0.336415    -3.467060
 C     1.762575     2.873749     0.829784
 C     2.898477     2.938458     1.635446
 H     3.523330     2.053756     1.761682
 C     0.985265     4.015210     0.612687
 H     0.116098     3.952595    -0.043832
 C     3.256287     4.140790     2.259480
 C     4.476544     4.188467     3.132740
 H     4.338729     3.577096     4.039214
 H     5.357481     3.790548     2.605897
 H     4.704308     5.214769     3.451933
 C     1.342423     5.208853     1.228238
 H     0.736909     6.102585     1.059627
 C     2.465473     5.273805     2.052469
 H     2.737629     6.217444     2.531385
 H    -0.821405     2.279554    -1.258997
 H    -1.104582     1.357313    -2.723426
 C    -2.929597     2.160557    -1.855492
 H    -3.588425     1.414816    -2.328016
 H    -3.355789     2.353123    -0.860001
 C    -2.942252     3.453744    -2.658187
 H    -2.530500     3.270815    -3.667694
 H    -2.259624     4.183886    -2.185025
 C    -4.329507     4.069049    -2.777134
 H    -5.009418     3.336043    -3.246192
 H    -4.731835     4.241546    -1.763137
 C    -4.350362     5.367357    -3.567180
 H    -5.365538     5.787182    -3.633676
 H    -3.985487     5.215617    -4.595875
 H    -3.705516     6.129442    -3.100315
 C    -2.925618    -2.041926    -0.931841
 C    -2.445698    -2.642691     0.232398
 H    -1.878215    -2.048350     0.951432
 C    -3.664973    -2.775272    -1.858793
 H    -4.021566    -2.280458    -2.763487
 C    -2.676807    -4.001466     0.475114
 C    -2.101165    -4.647635     1.701147
 H    -2.245208    -4.018812     2.592931
 H    -2.556469    -5.628758     1.894847
 H    -1.015564    -4.799529     1.581686
 C    -3.910722    -4.121416    -1.609984
 H    -4.486495    -4.705785    -2.331583
 C    -3.418133    -4.733143    -0.457155
 H    -3.609487    -5.794403    -0.279888
 C    -2.545442     1.238305     1.268269
 C    -3.848419     0.749983     1.327842
 H    -4.053420    -0.264685     0.981608
 C    -2.238315     2.522269     1.719956
 H    -1.206077     2.873178     1.676749
 C    -4.884415     1.561155     1.804919
 C    -6.289443     1.034445     1.846413
 H    -6.627215     0.728869     0.843737
 H    -6.360592     0.146219     2.493858
 H    -6.992324     1.788273     2.226985
 C    -3.265528     3.328032     2.200502
 H    -3.039200     4.337834     2.551316
 C    -4.578259     2.857432     2.234017
 H    -5.377815     3.502434     2.607084
