  60
scf done:    -1532.931365
 C    -1.675611    -2.599212     0.834004
 H    -1.313600    -3.598439     0.537329
 H    -1.569166    -2.581900     1.932097
 C    -3.151556    -2.493722     0.460081
 H    -3.301445    -2.586562    -0.627522
 H    -3.763907    -3.280181     0.940118
 H    -3.593529    -1.524279     0.744744
Ir    -0.380739    -1.127383    -0.033596
 C    -1.859266     1.787081     1.195870
 C    -1.927191    -0.309958     3.144728
 C     0.466612     1.116948     2.717464
 C     2.876792     0.081298    -0.041907
 C     1.714931    -0.121096    -2.660903
 C     1.046388     2.086323    -1.048029
 P     1.260366     0.259214    -0.922762
 P    -0.895457     0.325667     1.770525
 C    -0.401011    -2.203711    -1.536199
 O    -0.490300    -2.843888    -2.492295
 H    -2.154548     2.385988     2.075653
 H    -1.163201     2.405171     0.607250
 C    -3.063589     1.415770     0.342047
 H    -2.725693     0.727345    -0.453365
 H    -3.789009     0.843713     0.946002
 C    -3.759464     2.623565    -0.267783
 H    -3.034841     3.186858    -0.884748
 H    -4.071840     3.318415     0.533780
 C    -4.967296     2.256963    -1.118775
 H    -4.649227     1.555857    -1.910087
 H    -5.688201     1.695676    -0.498486
 C    -5.655481     3.460063    -1.742661
 H    -6.523392     3.162076    -2.350115
 H    -4.967730     4.018722    -2.398011
 H    -6.014453     4.160687    -0.971349
 H    -2.849808    -0.752651     2.746689
 H    -1.380513    -1.096322     3.684026
 H    -2.178362     0.503455     3.842054
 H     0.073175     1.788116     3.496280
 H     1.078758     0.335562     3.190638
 H     1.111708     1.694696     2.041535
 H     2.663919     0.240636     1.027976
 H     3.119922    -0.991554    -0.128746
 C     4.049719     0.942304    -0.487494
 H     4.234289     0.804025    -1.566954
 H     3.804079     2.010651    -0.357515
 C     5.331929     0.634553     0.275665
 H     5.585554    -0.433067     0.145163
 H     5.152532     0.766698     1.358387
 C     6.516216     1.491714    -0.149071
 H     6.688325     1.358509    -1.231962
 H     6.256943     2.557504    -0.018165
 C     7.793077     1.178265     0.613909
 H     8.629867     1.812749     0.284878
 H     8.095718     0.128401     0.471405
 H     7.660959     1.336905     1.696348
 H     2.030933    -1.171836    -2.729053
 H     0.823792     0.002522    -3.293107
 H     2.517745     0.529113    -3.038982
 H     0.101179     2.289127    -1.572441
 H     0.987295     2.538883    -0.047879
 H     1.870273     2.562214    -1.600723
