  80
scf done:    -2442.828407
 C    -1.233917    -2.794665     0.412035
 H    -0.879812    -3.555407     1.127196
 H    -2.259391    -2.553769     0.731521
 C    -1.254012    -3.406044    -0.985489
 H    -0.243727    -3.696484    -1.317640
 H    -1.886766    -4.312310    -1.037513
 H    -1.651958    -2.705916    -1.740673
Ir     0.004906    -1.057320     0.409793
 C    -1.447515     0.714318    -2.295495
 C    -3.432019    -0.607564    -0.713149
 C    -2.162302     1.692228     0.377759
 C     1.177478     2.406359    -0.108036
 C     3.019807     0.644899     1.141858
 C     2.361379     0.336566    -1.661838
 P     1.594063     0.615337    -0.012814
 P    -1.780447     0.173842    -0.574459
 C     1.141793    -1.994942     1.522745
 O     1.791168    -2.567737     2.287101
 H    -0.508245     1.282294    -2.303567
 H    -1.284376    -0.181658    -2.911121
 H    -2.259602     1.325806    -2.705242
 C    -4.020756    -0.934108    -1.933904
 H    -3.509156    -0.683312    -2.864332
 C    -4.112198    -0.943504     0.476338
 O    -3.498343    -0.595924     1.617908
 C    -3.995944    -1.038447     2.847687
 H    -4.990987    -0.611646     3.064303
 H    -3.285750    -0.693203     3.609123
 H    -4.055722    -2.139737     2.884966
 C    -5.253980    -1.583711    -1.993895
 H    -5.693558    -1.834113    -2.961435
 C    -5.346987    -1.596634     0.422461
 H    -5.869632    -1.863911     1.341133
 C    -5.910499    -1.912615    -0.812870
 H    -6.874822    -2.425619    -0.844406
 C    -1.575769     1.833156     1.636614
 H    -0.887789     1.039848     1.956251
 C    -3.093600     2.657019    -0.052714
 O    -3.681103     2.449017    -1.248667
 C    -4.730541     3.280066    -1.657826
 H    -5.553236     3.286037    -0.922376
 H    -5.103357     2.867796    -2.604012
 H    -4.393816     4.317806    -1.827721
 C    -1.861499     2.926547     2.451169
 H    -1.391059     3.019073     3.432292
 C    -3.378571     3.761646     0.759257
 H    -4.087097     4.522219     0.430647
 C    -2.758388     3.891419     2.001030
 H    -2.992808     4.758672     2.623610
 H     0.736737     2.745777     0.837903
 H     2.069959     2.995441    -0.354708
 H     0.414563     2.547156    -0.885091
 C     3.187279     1.656279     2.087536
 H     2.497369     2.501669     2.100281
 C     3.923821    -0.437450     1.149192
 O     3.720852    -1.376165     0.208708
 C     4.439515    -2.575941     0.252356
 H     5.519947    -2.412042     0.093973
 H     4.050761    -3.196361    -0.564825
 H     4.282095    -3.099902     1.210152
 C     4.217163     1.609976     3.027957
 H     4.324052     2.412339     3.760954
 C     4.955382    -0.491038     2.090271
 H     5.647473    -1.333273     2.100718
 C     5.097832     0.533905     3.024731
 H     5.906247     0.480872     3.758009
 C     1.834653    -0.676202    -2.463682
 H     1.001057    -1.258181    -2.050885
 C     3.478412     1.057839    -2.128612
 O     3.974369     2.005793    -1.307167
 C     5.187642     2.628069    -1.618267
 H     5.998734     1.891447    -1.751440
 H     5.432036     3.275321    -0.766388
 H     5.113932     3.247153    -2.529933
 C     2.370480    -0.966670    -3.717927
 H     1.941470    -1.764428    -4.327740
 C     4.025808     0.767061    -3.382837
 H     4.890074     1.320184    -3.751654
 C     3.465836    -0.238772    -4.171013
 H     3.903950    -0.453806    -5.149060
