  64
scf done:    -2381.812448
 C    -1.068667    -2.937230    -1.380606
 H    -1.293602    -3.874930    -0.845350
 H    -2.056071    -2.568152    -1.709929
 C    -0.208303    -3.243341    -2.602586
 H     0.751860    -3.704594    -2.320350
 H    -0.709222    -3.938725    -3.301902
 H     0.037329    -2.334242    -3.178163
Ir     0.001684    -1.550517    -0.138577
 C    -1.822568     0.253185    -2.589597
 C    -3.307455    -0.581543    -0.254327
 C    -1.662221     1.674932    -0.091936
 C     1.310772     0.337734     2.607309
 C     3.241056    -0.559272     0.678945
 C     1.593785     1.595997     0.016097
 P     1.477726    -0.046811     0.824584
 P    -1.644040    -0.020778    -0.787779
 C     0.728048    -3.009129     0.754586
 O     1.045162    -3.912361     1.397772
 H    -0.901910     0.715653    -2.972829
 H    -1.938450    -0.730640    -3.063956
 H    -2.686136     0.884739    -2.841441
 C    -3.437868    -1.706202     0.566306
 H    -2.533723    -2.258420     0.840923
 C    -4.452710     0.143756    -0.607204
 H    -4.368372     1.044429    -1.221277
 C    -4.690277    -2.113156     1.019104
 H    -4.810653    -2.989511     1.658365
 C    -5.709984    -0.255356    -0.168006
 H    -6.614014     0.295190    -0.434040
 C    -5.809921    -1.383412     0.641009
 F    -7.010290    -1.766297     1.066506
 C    -1.524834     2.830623    -0.865043
 H    -1.393449     2.764214    -1.945951
 C    -1.823658     1.803739     1.294564
 H    -1.953434     0.905926     1.905796
 C    -1.533817     4.091227    -0.271313
 H    -1.410681     5.000542    -0.862145
 C    -1.833332     3.054555     1.900850
 H    -1.960708     3.170136     2.978831
 C    -1.682105     4.185459     1.104806
 F    -1.670907     5.386421     1.679292
 H     1.328235    -0.620100     3.145846
 H     2.104879     0.987647     3.001519
 H     0.333660     0.810791     2.773965
 C     4.264390     0.140732     1.332125
 H     4.029411     0.998633     1.967018
 C     3.584534    -1.624282    -0.160437
 H     2.789249    -2.160820    -0.685571
 C     5.595939    -0.226851     1.175526
 H     6.402836     0.306201     1.681550
 C     4.914464    -2.000770    -0.333651
 H     5.194180    -2.832176    -0.982996
 C     5.902729    -1.298691     0.342790
 F     7.175537    -1.652563     0.188712
 C     1.599436     2.811956     0.703316
 H     1.500808     2.836288     1.789952
 C     1.706198     1.607288    -1.381533
 H     1.704010     0.657150    -1.925465
 C     1.708577     4.019296     0.015277
 H     1.694782     4.977520     0.537739
 C     1.819892     2.803251    -2.080938
 H     1.911583     2.827915    -3.168477
 C     1.815645     3.998005    -1.367772
 F     1.899533     5.149867    -2.031338
