  84
scf done:    -1847.181970
 C    -2.542710    -0.429770    -2.112639
 H    -2.470233    -1.097899    -2.989740
 H    -3.236405    -0.939487    -1.424545
 C    -3.178466     0.891543    -2.537590
 H    -2.584922     1.404403    -3.311732
 H    -4.196722     0.752871    -2.947953
 H    -3.267908     1.595275    -1.692825
Ir    -0.617274    -0.104144    -1.230525
 C    -1.996744    -0.521606     2.051296
 C    -2.470556    -2.744979     0.288753
 C     0.158641    -2.358222     1.387483
 C     2.825911    -0.310359    -0.278981
 C     1.877435     2.274822    -1.123668
 C     1.121064     1.323877     1.507409
 P     1.312123     0.751380    -0.248870
 P    -1.237187    -1.420768     0.627710
 C    -0.018627     0.355117    -2.920869
 O     0.408128     0.511673    -3.984129
 H    -2.531304    -1.227863     2.708851
 H    -1.167218    -0.100489     2.643167
 C    -2.915150     0.597591     1.574894
 H    -2.364389     1.217837     0.843727
 H    -3.760471     0.172172     1.006272
 C    -3.445128     1.471374     2.701348
 H    -2.591870     1.896189     3.262864
 H    -3.998493     0.848229     3.427846
 C    -4.341472     2.601614     2.214891
 H    -3.783950     3.211841     1.482570
 H    -5.190915     2.172248     1.655104
 C    -4.859960     3.488536     3.335009
 H    -5.503136     4.294559     2.950708
 H    -4.031284     3.959891     3.888004
 H    -5.451575     2.909617     4.062563
 H    -2.669955    -3.292776     1.225003
 H    -3.409992    -2.238022     0.017332
 C    -2.040333    -3.684827    -0.829422
 H    -1.150867    -4.255251    -0.508975
 H    -1.715081    -3.077802    -1.690593
 C    -3.141211    -4.645931    -1.247776
 H    -3.476774    -5.270792    -0.404049
 H    -4.018929    -4.097315    -1.624774
 H    -2.802092    -5.320399    -2.048524
 H     0.668727    -2.863547     0.550294
 H     0.868849    -1.597537     1.749661
 C    -0.163663    -3.343789     2.502434
 H    -0.823000    -4.138932     2.117594
 H    -0.733466    -2.835330     3.298871
 C     1.089005    -3.972126     3.095230
 H     1.664857    -4.511615     2.326412
 H     1.753784    -3.206827     3.527285
 H     0.843294    -4.689327     3.892956
 H     2.515233    -1.285852     0.128159
 H     2.990328    -0.492821    -1.355594
 C     4.112142     0.154695     0.388364
 H     4.385996     1.163382     0.033859
 H     3.955513     0.246279     1.476872
 C     5.278000    -0.793641     0.138501
 H     5.446486    -0.883679    -0.949964
 H     5.001946    -1.807822     0.480927
 C     6.571033    -0.364604     0.817841
 H     6.838961     0.650825     0.475571
 H     6.396126    -0.275344     1.904944
 C     7.731125    -1.313176     0.562549
 H     8.650261    -0.976952     1.065765
 H     7.951589    -1.393343    -0.514049
 H     7.504665    -2.328248     0.926772
 H     2.776650     2.688780    -0.637838
 H     2.184930     1.937440    -2.128492
 C     0.787429     3.333289    -1.247151
 H     0.511777     3.702566    -0.243849
 H    -0.123019     2.854060    -1.646183
 C     1.197541     4.501555    -2.129101
 H     2.098919     5.004590    -1.742533
 H     1.420771     4.161425    -3.152833
 H     0.397576     5.254478    -2.195794
 H     0.068377     1.643901     1.585431
 H     1.204299     0.422660     2.139279
 C     2.022991     2.425101     2.053715
 H     1.897432     3.337513     1.449140
 H     3.081762     2.141955     1.954089
 C     1.713246     2.740787     3.509766
 H     0.663920     3.053864     3.634430
 H     1.871650     1.859911     4.152842
 H     2.351089     3.551776     3.892824
