  76
scf done:    -2538.950511
 C    -0.710166    -2.704052    -2.361466
 H    -0.555885    -3.792104    -2.451022
 H    -1.804639    -2.595406    -2.257374
 C    -0.266548    -2.027361    -3.656463
 H     0.808391    -2.177547    -3.844672
 H    -0.808267    -2.415982    -4.538977
 H    -0.433176    -0.936534    -3.635267
Ir     0.410174    -1.900879    -0.711810
 C    -2.369963     0.146350    -1.533059
 C    -2.841561    -2.085546     0.298194
 C    -1.701288     0.398702     1.286238
 C     1.875007    -1.195657     2.523053
 C     3.643730    -1.165111     0.226882
 C     1.871826     1.027350     0.795322
 P     1.880441    -0.822058     0.726929
 P    -1.590698    -0.785295    -0.165400
 C     1.591983    -3.299458    -0.997029
 O     2.241696    -4.246207    -1.111183
 H    -1.690264     0.957812    -1.828792
 H    -2.494418    -0.531123    -2.388386
 H    -3.335024     0.583600    -1.244899
 H    -2.925144    -2.733115    -0.586900
 H    -2.345332    -2.686423     1.074746
 C    -4.176565    -1.590681     0.758440
 C    -4.486740    -1.526115     2.123651
 H    -3.761314    -1.888513     2.857194
 C    -5.147035    -1.156261    -0.156010
 H    -4.946477    -1.225162    -1.227519
 C    -5.706387    -1.022257     2.571097
 H    -5.952007    -0.974198     3.633408
 C    -6.368869    -0.646142     0.271473
 H    -7.126183    -0.305890    -0.436965
 C    -6.631539    -0.578163     1.634998
 F    -7.798138    -0.090270     2.050695
 H    -2.270255    -0.116512     2.072920
 H    -0.679341     0.517912     1.664565
 C    -2.319283     1.732486     0.989589
 C    -1.568728     2.753777     0.391538
 H    -0.515022     2.591564     0.152581
 C    -3.672956     1.972764     1.254847
 H    -4.280400     1.189009     1.712739
 C    -2.144607     3.978752     0.068226
 H    -1.562706     4.774539    -0.400182
 C    -4.264504     3.192920     0.937458
 H    -5.318884     3.385668     1.143533
 C    -3.490699     4.183369     0.345914
 F    -4.050115     5.352506     0.038332
 H     2.022639    -2.277075     2.654502
 H     2.652529    -0.644076     3.073054
 H     0.886378    -0.941424     2.932435
 H     3.773617    -2.252304     0.343904
 H     3.671799    -0.963238    -0.854811
 C     4.706514    -0.401910     0.950943
 C     5.150651     0.838378     0.470680
 H     4.736941     1.232522    -0.461496
 C     5.264535    -0.885839     2.141723
 H     4.950496    -1.859894     2.525852
 C     6.107627     1.580151     1.157479
 H     6.459205     2.544261     0.785571
 C     6.223365    -0.157617     2.841503
 H     6.665689    -0.532463     3.766248
 C     6.630640     1.072494     2.340600
 F     7.546605     1.775989     3.004043
 H     0.993651     1.311807     1.399159
 H     2.743876     1.341067     1.392038
 C     1.847034     1.777519    -0.511840
 C     1.448185     1.197830    -1.722517
 H     1.183730     0.126589    -1.749471
 C     2.192116     3.137461    -0.514674
 H     2.516885     3.610989     0.416099
 C     1.376406     1.947557    -2.894970
 H     1.066797     1.493317    -3.838217
 C     2.123587     3.901542    -1.675648
 H     2.388806     4.960362    -1.681504
 C     1.709729     3.294283    -2.856545
 F     1.640228     4.020279    -3.970397
