  86
scf done:    -2521.381417
 C     1.396712    -2.507634    -1.306345
 H     1.064902    -2.882776    -2.288036
 H     2.349563    -1.996056    -1.499431
 C     1.602768    -3.686212    -0.362398
 H     0.674054    -4.263210    -0.222574
 H     2.368932    -4.390292    -0.739375
 H     1.939992    -3.364745     0.636966
Ir    -0.055151    -1.221088    -0.420759
 C     1.397227     0.628011     2.342964
 C     3.309655    -0.884409     0.808597
 C     1.992847     1.524378    -0.321988
 C    -1.878255    -0.656157     2.595281
 C    -2.076130     1.505845     0.655638
 C    -3.475250    -1.070026     0.308849
 P    -1.859873    -0.309498     0.773898
 P     1.700892    -0.018308     0.632831
 C    -1.103923    -1.539112    -1.899619
 O    -1.669934    -1.585215    -2.908308
 H     1.134130    -0.254873     2.947964
 C     2.436540     1.483343     3.044736
 H     2.585467     2.437081     2.521546
 H     3.411908     0.980496     3.103281
 H     0.463358     1.196222     2.215602
 H     2.103202     1.710029     4.070182
 C     3.578721    -1.588103     1.983136
 H     2.863637    -1.549367     2.807776
 C     4.235845    -0.975133    -0.250469
 O     3.937543    -0.285979    -1.366327
 C     4.741589    -0.410002    -2.502426
 H     5.768653    -0.045746    -2.321110
 H     4.275877     0.209820    -3.278733
 H     4.787161    -1.455185    -2.854766
 C     4.733570    -2.356648     2.130950
 H     4.915150    -2.897816     3.061555
 C     5.393195    -1.746131    -0.110245
 H     6.106544    -1.820502    -0.931274
 C     5.638332    -2.431902     1.078937
 H     6.545129    -3.034268     1.172451
 C     0.986495     1.940163    -1.193221
 H     0.114465     1.286015    -1.296413
 C     3.160112     2.309717    -0.214022
 O     4.121074     1.862803     0.616356
 C     5.359213     2.506589     0.663203
 H     5.837409     2.543033    -0.331507
 H     5.990252     1.916649     1.340308
 H     5.276650     3.535885     1.055487
 C     1.100201     3.120427    -1.927843
 H     0.291379     3.429826    -2.592432
 C     3.284195     3.485522    -0.959874
 H     4.185143     4.094617    -0.882854
 C     2.250944     3.888827    -1.806776
 H     2.360622     4.814496    -2.377583
 H    -1.041465    -0.099716     3.039812
 C    -3.176916    -0.399380     3.342836
 H    -3.980200    -1.054053     2.975256
 H    -3.520111     0.638267     3.224175
 H    -1.592214    -1.719098     2.658480
 H    -3.048008    -0.599040     4.418295
 C    -1.822573     2.385426     1.705585
 H    -1.601008     1.993603     2.700297
 C    -2.378440     2.045082    -0.612517
 O    -2.611356     1.138436    -1.577261
 C    -2.829151     1.548098    -2.898019
 H    -3.761911     2.131220    -2.993364
 H    -2.905314     0.629652    -3.491899
 H    -1.986830     2.151822    -3.278312
 C    -1.854928     3.770029     1.517875
 H    -1.646367     4.438906     2.355317
 C    -2.424144     3.425488    -0.806271
 H    -2.661371     3.838505    -1.787210
 C    -2.156187     4.283598     0.262770
 H    -2.183899     5.363889     0.101892
 C    -3.447104    -2.419935    -0.046277
 H    -2.475301    -2.921812    -0.081185
 C    -4.724430    -0.415266     0.348374
 O    -4.733055     0.868375     0.753629
 C    -5.914762     1.611864     0.710328
 H    -6.339639     1.646355    -0.308284
 H    -5.648343     2.630762     1.019754
 H    -6.679208     1.213745     1.401109
 C    -4.607391    -3.118803    -0.376612
 H    -4.550900    -4.173210    -0.653556
 C    -5.888657    -1.104693    -0.008782
 H    -6.853227    -0.596701     0.002694
 C    -5.825814    -2.450356    -0.367662
 H    -6.745687    -2.973984    -0.639668
