  88
scf done:    -2299.293664
 C    -2.216432     0.156856    -2.784641
 H    -2.038048    -0.193378    -3.814187
 H    -3.066244    -0.440231    -2.418653
 C    -2.592639     1.634073    -2.821528
 H    -1.787238     2.249923    -3.253839
 H    -3.501993     1.815989    -3.424421
 H    -2.796821     2.038750    -1.815788
Ir    -0.500689    -0.090181    -1.536081
 C    -1.786480     0.895745     1.731678
 C    -3.755988    -0.317412     0.020621
 C    -1.717073    -1.949479     1.124436
 C     2.847187    -0.974738    -1.038604
 C     2.166339     1.729385    -0.253674
 C     1.540240    -0.507357     1.468719
 P     1.478578     0.022064    -0.290029
 P    -1.948034    -0.312085     0.340293
 C     0.417854    -0.415784    -3.104051
 O     0.951167    -0.709319    -4.084989
 H    -2.744657     0.962449     2.271339
 H    -1.052520     0.458050     2.424996
 C    -1.297027     2.261961     1.272066
 H    -0.373423     2.123557     0.687347
 H    -2.010114     2.715431     0.561816
 C    -1.027558     3.228272     2.416062
 H    -0.411491     2.721394     3.181319
 H    -1.974965     3.485496     2.924018
 C    -0.318638     4.497382     1.963008
 H     0.623242     4.219622     1.458151
 H    -0.929482     4.997085     1.190471
 C    -0.027097     5.466909     3.095991
 H     0.491510     6.368024     2.735045
 H     0.613068     5.001706     3.863280
 H    -0.953341     5.793487     3.596008
 C    -4.395473    -1.495953    -0.382302
 C    -4.502396     0.863342     0.103722
 C    -6.490537    -0.312666    -0.602810
 C    -5.861350     0.865044    -0.205388
 C    -5.753609    -1.493093    -0.689215
 H    -3.825751    -2.425292    -0.454427
 H    -6.239092    -2.421313    -0.999765
 H    -7.555706    -0.310949    -0.845781
 H    -6.430106     1.795359    -0.136165
 H    -4.026161     1.797545     0.409027
 C    -2.095989    -2.201934     2.446896
 C    -1.173168    -2.983006     0.353454
 C    -1.376801    -4.497827     2.223133
 C    -1.010650    -4.254916     0.899899
 C    -1.916796    -3.469450     2.995918
 H    -2.531645    -1.408116     3.057862
 H    -2.204777    -3.656969     4.033104
 H    -1.243185    -5.492857     2.655017
 H    -0.588687    -5.058046     0.290620
 H    -0.863222    -2.753029    -0.672908
 H     2.450283    -2.002421    -1.103286
 H     2.910748    -0.624651    -2.081651
 C     4.214588    -0.957576    -0.377456
 H     4.636470     0.059441    -0.430837
 H     4.117100    -1.196273     0.695938
 C     5.188400    -1.935228    -1.022961
 H     5.272668    -1.710662    -2.101706
 H     4.773167    -2.957999    -0.963476
 C     6.573569    -1.915408    -0.391772
 H     6.983986    -0.891969    -0.455224
 H     6.481422    -2.132618     0.687328
 C     7.543059    -2.896165    -1.031208
 H     8.534427    -2.858148    -0.554749
 H     7.680442    -2.680197    -2.102967
 H     7.174838    -3.931698    -0.950738
 C     1.596555     2.668152    -1.123667
 C     3.228256     2.127730     0.571513
 C     3.127058     4.363740    -0.341915
 C     3.701838     3.437387     0.529095
 C     2.075583     3.976162    -1.170187
 H     0.757361     2.348699    -1.752604
 H     1.617801     4.696883    -1.851778
 H     3.499463     5.390686    -0.371252
 H     4.525880     3.736844     1.181301
 H     3.680341     1.415609     1.264908
 C     1.447105     0.392955     2.536908
 C     1.566099    -1.880358     1.753926
 C     1.397035    -1.432728     4.120971
 C     1.496424    -2.338970     3.065600
 C     1.374729    -0.066054     3.851942
 H     1.424671     1.466929     2.343111
 H     1.299838     0.654370     4.670471
 H     1.337422    -1.792237     5.150869
 H     1.506726    -3.413289     3.261476
 H     1.624046    -2.606117     0.940503
