  68
scf done:    -2285.838322
 C    -1.104957    -2.349863     2.262517
 H    -0.666117    -2.302825     3.275262
 H    -2.091915    -1.864274     2.352579
 C    -1.329283    -3.805398     1.863199
 H    -0.390740    -4.382877     1.853137
 H    -2.018560    -4.318793     2.558132
 H    -1.767769    -3.890759     0.856568
Ir     0.218478    -1.281614     0.932640
 C    -1.872017     1.194892     2.223710
 O    -1.323354     1.309670    -0.473027
 O    -3.031905    -0.340787     0.482174
 C     1.178916    -0.176135    -2.310582
 O     1.743365     1.455032    -0.397121
 O     3.107923    -0.739541    -0.470375
 P     1.538051    -0.197248    -0.537468
 P    -1.499777     0.215481     0.760506
 C     1.585229    -2.456130     1.491279
 O     2.419014    -3.129880     1.895030
 H    -2.033712     0.496468     3.056473
 H    -0.999104     1.824357     2.449265
 H    -2.770179     1.807466     2.066239
 C    -2.299682     2.196871    -0.864508
 C    -2.423684     3.433386    -0.231418
 H    -1.751544     3.683339     0.590367
 C    -3.128201     1.857366    -1.933309
 H    -3.010303     0.883096    -2.411082
 C    -3.394372     4.331716    -0.671976
 H    -3.492233     5.301689    -0.178670
 C    -4.094312     2.762866    -2.364420
 H    -4.745553     2.495470    -3.199817
 C    -4.232554     4.000183    -1.735439
 H    -4.991680     4.707389    -2.076510
 C    -3.378619    -1.198085    -0.530453
 C    -4.732227    -1.231914    -0.868278
 H    -5.423671    -0.590218    -0.319574
 C    -2.457851    -1.994899    -1.211542
 H    -1.398467    -1.981319    -0.918293
 C    -5.164897    -2.068760    -1.892304
 H    -6.225677    -2.093572    -2.153066
 C    -2.905509    -2.826651    -2.237242
 H    -2.183151    -3.454563    -2.764342
 C    -4.254237    -2.868039    -2.584721
 H    -4.596104    -3.522882    -3.388978
 H     1.170004    -1.208117    -2.687878
 H     0.177826     0.262961    -2.423525
 H     1.915809     0.425423    -2.861062
 C     1.597633     2.137764     0.771353
 C     1.036055     3.413790     0.696024
 H     0.739001     3.792557    -0.283269
 C     1.997331     1.614605     2.004260
 H     2.447737     0.622110     2.053651
 C     0.855972     4.159581     1.858038
 H     0.417073     5.158579     1.794050
 C     1.801677     2.366922     3.161985
 H     2.106548     1.950428     4.124810
 C     1.227681     3.636048     3.097931
 H     1.079991     4.219769     4.008979
 C     4.107903    -0.300664    -1.299970
 C     4.719469     0.934853    -1.082724
 H     4.381540     1.562391    -0.257278
 C     4.530477    -1.128635    -2.340156
 H     4.041831    -2.095450    -2.476340
 C     5.754962     1.340198    -1.922013
 H     6.235062     2.306940    -1.752604
 C     5.568929    -0.714327    -3.171053
 H     5.902149    -1.364893    -3.983180
 C     6.181718     0.521771    -2.967504
 H     6.995328     0.845057    -3.620451
