  76
scf done:    -1990.841099
 C    -1.121841    -2.265439    -1.449575
 H    -1.159513    -3.291089    -1.047837
 H    -2.167856    -1.972538    -1.613443
 C    -0.362087    -2.264617    -2.771934
 H     0.682808    -2.596623    -2.652857
 H    -0.829890    -2.938602    -3.513866
 H    -0.329983    -1.262632    -3.233379
Ir    -0.051376    -0.923289    -0.158064
 C    -2.065498     1.581655    -1.911277
 O    -3.292811    -0.296314    -0.523240
 O    -2.223876     1.580553     0.761511
 C     1.996548     1.040652     2.247852
 O     3.152826    -0.157791     0.222862
 O     1.746506     1.911914    -0.256471
 P     1.654256     0.455570     0.532604
 P    -1.864620     0.504449    -0.424693
 C     0.605026    -2.448290     0.674343
 O     0.806115    -3.385146     1.320252
 H    -1.573161     1.005031    -2.715264
 C    -3.514529     1.849011    -2.292973
 H    -3.552152     2.520470    -3.165985
 H    -4.050040     0.923179    -2.537570
 H    -4.048756     2.339902    -1.465015
 C    -1.291734     2.875539    -1.673506
 H    -0.300067     2.693485    -1.235782
 H    -1.158455     3.422676    -2.620065
 H    -1.845441     3.522585    -0.978074
 C    -4.014138    -0.813128     0.593639
 H    -4.147310     0.017099     1.309372
 C    -3.285387    -1.952300     1.281110
 H    -2.278237    -1.646234     1.604761
 H    -3.162261    -2.806602     0.599829
 H    -3.854840    -2.283478     2.162792
 C    -5.372541    -1.219747     0.061936
 H    -5.865358    -0.367427    -0.427195
 H    -5.266758    -2.029808    -0.675754
 H    -6.015868    -1.575348     0.880330
 C    -1.538000     1.709555     2.004733
 H    -0.742988     0.942130     2.028663
 C    -2.506678     1.445741     3.139594
 H    -2.890199     0.416487     3.101080
 H    -3.360102     2.139598     3.089482
 H    -2.004367     1.583302     4.108786
 C    -0.929068     3.096689     2.059368
 H    -0.190983     3.230214     1.255279
 H    -1.716057     3.857366     1.940646
 H    -0.429072     3.269582     3.024474
 H     1.167586     1.731101     2.463029
 C     1.915149    -0.146775     3.198996
 H     2.026563     0.186149     4.242477
 H     0.954891    -0.677890     3.107517
 H     2.719025    -0.870289     2.991524
 C     3.307759     1.805604     2.355610
 H     3.329129     2.655053     1.658004
 H     3.435416     2.197421     3.377362
 H     4.161235     1.151684     2.126953
 C     3.474590    -1.352913    -0.491796
 H     2.547011    -1.746522    -0.946387
 C     4.024952    -2.366996     0.490735
 H     3.285579    -2.613042     1.264489
 H     4.925685    -1.967366     0.982226
 H     4.295474    -3.299722    -0.026285
 C     4.470879    -1.013601    -1.582788
 H     4.043633    -0.317110    -2.316551
 H     5.372661    -0.554184    -1.149164
 H     4.772014    -1.926258    -2.118044
 C     2.487827     2.084737    -1.464748
 H     3.496877     1.672920    -1.296129
 C     2.602752     3.575923    -1.700994
 H     3.076152     4.066870    -0.838755
 H     1.610241     4.025929    -1.853165
 H     3.213504     3.774966    -2.594113
 C     1.846101     1.345713    -2.627849
 H     1.664081     0.288334    -2.376742
 H     0.880252     1.792941    -2.899722
 H     2.500745     1.381444    -3.511861
