  96
scf done:    -2900.599068
 C     2.037732    -0.558641    -2.382983
 H     2.040427    -0.015204    -3.345760
 H     2.880313    -0.149788    -1.802741
 C     2.304367    -2.035457    -2.656130
 H     1.555488    -2.467698    -3.340153
 H     3.295240    -2.207961    -3.121035
 H     2.269863    -2.638902    -1.734332
Ir     0.161366    -0.119860    -1.441043
 C     0.687861     0.832936     2.150423
 C     1.935826    -1.550366     1.030450
 C     2.902841     1.217667     0.543626
 C    -2.848890     1.339539    -2.102400
 C    -3.253458    -0.735949    -0.287239
 C    -2.048425     1.794598     0.650866
 P    -1.958231     0.532338    -0.698640
 P     1.393933     0.160429     0.593127
 C    -0.642788    -0.939804    -2.866958
 O    -1.149531    -1.574779    -3.696759
 H     0.515203     1.907061     1.996132
 H    -0.255745     0.335087     2.382772
 H     1.410299     0.685778     2.963543
 C     3.179073    -2.102569     0.666393
 O     4.051103    -1.282407     0.054184
 C     5.235849    -1.786439    -0.487304
 H     5.725252    -0.941764    -0.988879
 H     5.913227    -2.179179     0.292371
 H     5.037941    -2.580183    -1.227115
 C     0.991661    -2.409743     1.627664
 O    -0.208651    -1.872026     1.907210
 C    -1.238407    -2.670974     2.410069
 H    -2.134306    -2.041281     2.406656
 H    -1.022964    -3.014855     3.437851
 H    -1.426518    -3.547842     1.770683
 C     1.291663    -3.751264     1.898505
 H     0.555162    -4.398822     2.372045
 C     3.484367    -3.444211     0.931724
 H     4.451605    -3.856548     0.648196
 C     2.538677    -4.253263     1.548589
 H     2.776284    -5.299761     1.754113
 C     3.935627     1.096956     1.492086
 O     3.722282     0.217779     2.490028
 C     4.791413    -0.200389     3.287083
 H     4.411335    -1.017680     3.913358
 H     5.627871    -0.578091     2.674010
 H     5.163644     0.608512     3.940354
 C     3.044575     2.178923    -0.470176
 O     1.994221     2.358475    -1.289673
 C     2.206162     2.814676    -2.598295
 H     1.292862     2.567273    -3.154635
 H     3.057192     2.296120    -3.067861
 H     2.379675     3.905349    -2.630736
 C     4.226589     2.924140    -0.598528
 H     4.334022     3.653215    -1.401449
 C     5.113692     1.841272     1.378603
 H     5.917229     1.730783     2.106115
 C     5.248152     2.739871     0.322899
 H     6.167523     3.323416     0.230105
 H    -3.107650     0.535055    -2.805855
 H    -3.758933     1.854317    -1.772342
 H    -2.161665     2.036582    -2.592193
 C    -4.576278    -0.355941     0.023094
 O    -4.799802     0.968158     0.148666
 C    -6.070040     1.433709     0.496214
 H    -5.990992     2.526200     0.566009
 H    -6.827752     1.175422    -0.264338
 H    -6.399957     1.037346     1.472885
 C    -2.984422    -2.115077    -0.402697
 O    -1.717540    -2.477288    -0.632216
 C    -1.400216    -3.751614    -1.112319
 H    -0.329808    -3.719815    -1.353880
 H    -1.971713    -3.992948    -2.024053
 H    -1.571469    -4.537897    -0.354456
 C    -4.005798    -3.068607    -0.250563
 H    -3.783765    -4.129639    -0.359570
 C    -5.592116    -1.301177     0.200586
 H    -6.609173    -0.992753     0.439014
 C    -5.293079    -2.652554     0.051301
 H    -6.085534    -3.395064     0.173940
 C    -2.487132     1.551950     1.964808
 O    -2.900495     0.299968     2.256920
 C    -3.628579     0.068569     3.427217
 H    -4.027716    -0.951820     3.349669
 H    -2.997867     0.138209     4.331074
 H    -4.472724     0.772738     3.526968
 C    -1.520801     3.072651     0.373389
 O    -1.081764     3.270978    -0.883091
 C    -0.468173     4.480377    -1.220000
 H    -0.209674     4.410589    -2.283242
 H     0.455106     4.640743    -0.638390
 H    -1.147052     5.339168    -1.075725
 C    -1.456115     4.071275     1.353854
 H    -1.038028     5.050132     1.124781
 C    -2.451937     2.552170     2.944337
 H    -2.795745     2.347221     3.957267
 C    -1.932506     3.801068     2.630282
 H    -1.887099     4.576154     3.398877
