  88
scf done:    -4137.178351
 C     2.016848    -1.935738    -2.143358
 H     2.324369    -1.653992    -3.165657
 H     2.916795    -1.774616    -1.526996
 C     1.650197    -3.415372    -2.117378
 H     0.822232    -3.647535    -2.806048
 H     2.504151    -4.056769    -2.404061
 H     1.327889    -3.746091    -1.115473
Ir     0.371856    -0.739065    -1.475263
 C     2.184836    -0.684045     1.644611
 C     3.461848     0.678839    -0.600259
 C     1.287165     1.885610     0.719292
 C    -2.044454     1.700045    -0.009597
 C    -3.133557    -0.700770    -1.044520
 C    -1.424967    -0.848837     1.266679
 P    -1.557754    -0.041603    -0.374684
 P     1.825013     0.243094     0.101286
 C    -0.424874    -1.128048    -3.102342
 O    -0.840598    -1.268760    -4.169418
 H     2.888209    -0.117643     2.277483
 H     1.226134    -0.718542     2.186705
 C     2.669826    -2.105477     1.403991
 H     1.937999    -2.622177     0.761588
 H     3.615554    -2.098365     0.835567
 C     2.846915    -2.878112     2.703233
 H     1.937678    -2.765201     3.319172
 H     3.663394    -2.426841     3.296237
 C     3.123483    -4.360248     2.498021
 H     2.314997    -4.790937     1.880380
 H     4.046110    -4.484271     1.904233
 C     3.235015    -5.130912     3.803499
 H     3.420247    -6.201759     3.630630
 H     2.309348    -5.040580     4.394711
 H     4.059573    -4.746848     4.425514
 C     3.563730     0.883927    -1.980500
 H     2.683725     0.700275    -2.604870
 C     4.589494     0.883668     0.201594
 H     4.537256     0.738749     1.282920
 C     4.764220     1.290529    -2.553858
 H     4.845977     1.448271    -3.630341
 C     5.799480     1.279061    -0.360221
 H     6.682825     1.433849     0.261219
 C     5.877881     1.483382    -1.737727
Cl     7.378996     1.978845    -2.440886
 C     0.972624     2.141016     2.057459
 H     1.114823     1.373402     2.819008
 C     1.100751     2.906911    -0.223203
 H     1.337004     2.720219    -1.274044
 C     0.439199     3.370552     2.443476
 H     0.174686     3.563031     3.484589
 C     0.583216     4.140867     0.149847
 H     0.423997     4.928935    -0.587667
 C     0.232694     4.358097     1.483733
Cl    -0.486053     5.862598     1.947130
 H    -1.270365     2.093447     0.664394
 H    -1.896506     2.239496    -0.959453
 C    -3.433906     1.970736     0.548679
 H    -4.196699     1.700800    -0.200116
 H    -3.636250     1.321615     1.418270
 C    -3.593142     3.430628     0.953494
 H    -3.399755     4.073550     0.075455
 H    -2.806204     3.696273     1.682601
 C    -4.955165     3.770011     1.539972
 H    -5.742570     3.505046     0.812462
 H    -5.138061     3.130720     2.422094
 C    -5.084886     5.233530     1.930576
 H    -6.067646     5.452449     2.374665
 H    -4.960605     5.891403     1.055440
 H    -4.313401     5.519834     2.663552
 C    -3.483549    -0.358318    -2.357151
 H    -2.801981     0.239128    -2.967499
 C    -4.022421    -1.474540    -0.291837
 H    -3.777210    -1.746526     0.736945
 C    -4.690276    -0.774123    -2.908339
 H    -4.958971    -0.508678    -3.931882
 C    -5.229456    -1.907613    -0.835756
 H    -5.920277    -2.515951    -0.249771
 C    -5.557903    -1.552624    -2.142101
Cl    -7.057635    -2.084390    -2.823015
 C    -1.488675    -0.174493     2.489902
 H    -1.740890     0.886293     2.524762
 C    -1.088043    -2.213571     1.268011
 H    -1.012970    -2.745229     0.314429
 C    -1.204773    -0.834219     3.686614
 H    -1.240384    -0.303791     4.639643
 C    -0.816888    -2.885764     2.453026
 H    -0.547452    -3.943173     2.448636
 C    -0.864333    -2.184419     3.659220
Cl    -0.467818    -2.999789     5.134504
