  66
scf done:    -1611.468964
 C    -1.596310    -2.439370    -0.367263
 H    -1.976164    -2.953835     0.532992
 H    -2.488828    -2.034079    -0.868633
 C    -0.952767    -3.466615    -1.294926
 H    -0.123999    -4.003055    -0.805052
 H    -1.678010    -4.229677    -1.635411
 H    -0.535468    -2.997926    -2.202233
Ir    -0.188016    -0.902026     0.097330
 C    -1.789711     1.872265    -1.608315
 C    -3.610811     0.189277    -0.162579
 C    -1.867036     1.960644     1.339404
 C     2.301060     0.890853     1.833246
 C     3.179782    -0.720137    -0.487735
 C     1.850048     1.961663    -0.895623
 P     1.790468     0.390552     0.116262
 P    -1.830575     0.775381    -0.115937
 C     0.692991    -2.164051     1.119529
 O     1.150068    -2.860323     1.924729
 H    -0.804597     2.359298    -1.613661
 C    -1.975241     1.071724    -2.889845
 H    -2.996350     0.671626    -2.981035
 H    -1.286418     0.211983    -2.918485
 H    -2.538163     2.676439    -1.522675
 H    -1.783112     1.692677    -3.778029
 H    -3.608118    -0.532357    -0.995837
 C    -3.982467    -0.571532     1.105602
 H    -4.911263    -1.141751     0.946269
 H    -3.194288    -1.277701     1.401092
 H    -4.164281     0.118716     1.944287
 C    -4.639056     1.268514    -0.480486
 H    -4.491669     1.722377    -1.470684
 H    -5.649506     0.828678    -0.472294
 H    -4.638776     2.078739     0.266573
 H    -2.920191     2.285400     1.400454
 C    -1.497534     1.243138     2.634316
 H    -1.546859     1.944793     3.483210
 H    -2.161965     0.397802     2.851058
 H    -0.479546     0.833281     2.566754
 C    -1.016433     3.211862     1.158413
 H    -1.262986     3.774244     0.246761
 H    -1.170723     3.888109     2.014463
 H     0.055982     2.970158     1.132863
 H     1.860616     0.103317     2.464839
 C     3.755454     1.096928     2.230557
 H     4.250001     1.894101     1.658806
 H     4.343039     0.175951     2.106048
 H     1.705783     1.793680     2.049629
 H     3.813098     1.372277     3.295496
 H     3.317427    -1.372668     0.394993
 C     2.729501    -1.613074    -1.643578
 H     3.472103    -2.409655    -1.812051
 H     1.755414    -2.079908    -1.434522
 H     2.638096    -1.044994    -2.581072
 C     4.519047    -0.068556    -0.820468
 H     4.908004     0.572556    -0.020950
 H     5.269660    -0.853292    -1.009727
 H     4.453685     0.534671    -1.738121
 H     0.902954     2.433185    -0.590340
 C     2.956170     2.967873    -0.602037
 H     2.801454     3.873695    -1.211668
 H     2.955406     3.283707     0.451129
 H     3.955655     2.580370    -0.841048
 C     1.731402     1.643205    -2.382346
 H     0.959243     0.882488    -2.572440
 H     1.463678     2.549529    -2.949348
 H     2.679741     1.268960    -2.794723
