  92
scf done:    -2599.959808
 C    -1.793477    -1.971598    -2.434453
 H    -1.989470    -3.020129    -2.142205
 H    -2.769740    -1.472924    -2.307894
 C    -1.415418    -1.941289    -3.912611
 H    -0.505183    -2.527259    -4.117529
 H    -2.216195    -2.356353    -4.552779
 H    -1.215593    -0.918988    -4.272339
Ir    -0.303674    -1.216215    -1.067438
 C    -2.304276     1.343926    -2.324116
 C    -3.453215    -0.114614    -0.005466
 C    -1.512872     1.933230     0.445254
 C     0.805857     0.088935     2.150369
 C     2.672317    -1.577434     0.743361
 C     2.195290     1.065393    -0.244093
 P     1.306864    -0.399579     0.409914
 P    -1.887570     0.538389    -0.685141
 C     0.753662    -2.610303    -1.662940
 O     1.389239    -3.474267    -2.086900
 H    -2.824729     0.515476    -2.832241
 C    -3.229231     2.550196    -2.264783
 H    -3.353230     2.968213    -3.276883
 H    -4.231119     2.292167    -1.897546
 H    -2.818078     3.346846    -1.624999
 C    -1.031146     1.638349    -3.115474
 H    -0.313858     0.806666    -3.029797
 H    -1.278856     1.782311    -4.178978
 H    -0.534440     2.558016    -2.772348
 C    -4.587697     0.674383     0.255117
 H    -4.568297     1.747782     0.059556
 C    -3.509188    -1.472952     0.320822
 H    -2.623187    -2.089848     0.133012
 C    -5.735566     0.118229     0.794939
 H    -6.619566     0.725103     0.999277
 C    -4.655690    -2.045515     0.868361
 H    -4.655908    -3.109598     1.104706
 C    -5.782911    -1.250774     1.101901
 O    -6.938489    -1.702465     1.620266
 C    -7.047822    -3.060371     1.948330
 H    -6.316916    -3.355371     2.721532
 H    -8.061035    -3.207594     2.342819
 H    -6.910459    -3.707485     1.064523
 C    -2.095944     2.041693     1.719414
 H    -2.839433     1.310995     2.041407
 C    -0.547495     2.880657     0.090309
 H    -0.031095     2.808836    -0.867176
 C    -1.730031     3.052531     2.594549
 H    -2.176385     3.130127     3.587669
 C    -0.184552     3.914006     0.952419
 H     0.577768     4.622263     0.629377
 C    -0.771389     4.003610     2.218198
 O    -0.476021     4.951460     3.128291
 C     0.494059     5.909064     2.810573
 H     0.201917     6.516358     1.935693
 H     0.586375     6.566696     3.684096
 H     1.476239     5.445821     2.606954
 H     0.429638     1.119025     2.037154
 C    -0.345557    -0.791250     2.620870
 H    -0.716566    -0.441224     3.597712
 H    -1.182493    -0.787524     1.909109
 H    -0.019923    -1.836951     2.740282
 C     1.943079     0.069899     3.166250
 H     2.832648     0.625083     2.837661
 H     1.600824     0.508779     4.117818
 H     2.270146    -0.961047     3.368366
 C     4.025307    -1.210157     0.742643
 H     4.309410    -0.185497     0.491480
 C     2.347602    -2.899864     1.057537
 H     1.299994    -3.213442     1.033220
 C     5.014966    -2.133025     1.047185
 H     6.071271    -1.857436     1.037534
 C     3.329891    -3.834671     1.378298
 H     3.035106    -4.857905     1.611627
 C     4.676709    -3.453533     1.372221
 O     5.702763    -4.280666     1.654561
 C     5.425944    -5.617618     1.961952
 H     4.919890    -6.134981     1.127787
 H     6.391667    -6.104864     2.147485
 H     4.800463    -5.711045     2.867614
 C     2.416590     1.094116    -1.632643
 H     2.066047     0.251040    -2.235565
 C     2.619789     2.161690     0.507006
 H     2.449349     2.193469     1.583531
 C     3.036238     2.172996    -2.240877
 H     3.204864     2.198630    -3.319036
 C     3.243326     3.259087    -0.090872
 H     3.556141     4.097082     0.533117
 C     3.454625     3.270953    -1.473549
 O     4.040229     4.280702    -2.145638
 C     4.481703     5.400469    -1.432653
 H     5.247751     5.135208    -0.682639
 H     4.925507     6.086503    -2.165121
 H     3.649623     5.916646    -0.920656
