 112
scf done:    -2313.772831
 C    -1.880531     0.027182    -2.873244
 H    -1.505213    -0.245597    -3.872681
 H    -2.744753    -0.634044    -2.715001
 C    -2.346604     1.479164    -2.910461
 H    -1.511213     2.174203    -3.096704
 H    -3.094007     1.656205    -3.707209
 H    -2.813040     1.794640    -1.962321
Ir    -0.340108    -0.135453    -1.395515
 C    -2.255217     0.762083     1.547675
 C    -3.666892    -0.945434    -0.297781
 C    -1.539894    -2.074373     1.326242
 C     2.555371    -1.310165     0.159978
 C     2.737192     1.329672    -1.161907
 C     1.507061     1.052692     1.573981
 P     1.608474     0.264823    -0.115772
 P    -1.935723    -0.561343     0.295077
 C     0.760417    -0.684731    -2.768616
 O     1.412710    -1.201498    -3.574727
 H    -2.956812     0.405927     2.319854
 H    -1.298344     0.951197     2.055911
 C    -2.750513     2.049475     0.902897
 H    -2.016137     2.371367     0.143828
 H    -3.682338     1.860067     0.342338
 C    -2.991947     3.176006     1.896732
 H    -2.069875     3.357476     2.475781
 H    -3.750969     2.858672     2.635220
 C    -3.434784     4.475167     1.238753
 H    -2.675351     4.777804     0.496258
 H    -4.357795     4.292855     0.660390
 C    -3.663099     5.605493     2.228864
 H    -3.979137     6.531148     1.724553
 H    -2.744520     5.831810     2.794324
 H    -4.442659     5.343528     2.962399
 H    -3.856645    -0.155353    -1.046058
 C    -4.772918    -0.866772     0.756357
 H    -4.766241     0.106429     1.268873
 H    -4.600696    -1.632223     1.535483
 C    -6.147900    -1.085080     0.126150
 H    -6.926515    -1.054166     0.905938
 H    -6.359562    -0.242586    -0.556795
 C    -6.224915    -2.391202    -0.654686
 H    -7.208957    -2.489024    -1.141235
 H    -6.140832    -3.239594     0.048988
 C    -5.103703    -2.485585    -1.682219
 H    -5.244053    -1.712383    -2.458831
 H    -5.136505    -3.456970    -2.201577
 C    -3.741645    -2.291144    -1.025732
 H    -3.585606    -3.105716    -0.296845
 H    -2.933338    -2.370648    -1.767780
 H    -2.524693    -2.470679     1.638180
 C    -0.743866    -1.789623     2.600865
 H    -1.258197    -1.049625     3.232316
 H     0.229193    -1.350315     2.326286
 C    -0.491655    -3.063586     3.402270
 H     0.094295    -2.826036     4.305413
 H    -1.458327    -3.465617     3.756355
 C     0.216134    -4.121315     2.565102
 H     0.359943    -5.043966     3.150430
 H     1.227579    -3.759990     2.302922
 C    -0.558412    -4.410059     1.285646
 H    -1.520830    -4.888478     1.545238
 H    -0.013179    -5.134720     0.659540
 C    -0.824968    -3.138724     0.487277
 H     0.119614    -2.704874     0.121517
 H    -1.399397    -3.372010    -0.418632
 H     2.100732    -1.758910     1.059996
 H     2.229946    -1.954870    -0.672156
 C     4.074362    -1.363978     0.256259
 H     4.518821    -0.975652    -0.675376
 H     4.445945    -0.716907     1.066399
 C     4.574148    -2.784488     0.488018
 H     4.200296    -3.438529    -0.320439
 H     4.128223    -3.179747     1.419756
 C     6.090358    -2.892696     0.568490
 H     6.529923    -2.496204    -0.363879
 H     6.457799    -2.232958     1.374716
 C     6.582615    -4.311509     0.803663
 H     7.680860    -4.357930     0.856800
 H     6.259938    -4.984981    -0.006517
 H     6.186249    -4.720634     1.747049
 H     3.055193     0.599561    -1.932429
 C     4.001705     1.919358    -0.531111
 H     4.579007     1.156925     0.007281
 H     3.716836     2.680925     0.214627
 C     4.880303     2.577265    -1.593918
 H     5.780906     3.005228    -1.123680
 H     5.235416     1.800023    -2.294817
 C     4.122981     3.648026    -2.370109
 H     4.761920     4.073970    -3.160821
 H     3.877655     4.481584    -1.686682
 C     2.832364     3.093050    -2.961933
 H     3.075155     2.345366    -3.738489
 H     2.265555     3.891506    -3.467704
 C     1.964591     2.433234    -1.896659
 H     1.634753     3.196830    -1.171752
 H     1.048365     2.008492    -2.338537
 H     0.683307     0.480963     2.033769
 C     1.035204     2.506473     1.499777
 H     0.145296     2.580553     0.853853
 H     1.813836     3.124441     1.023455
 C     0.746590     3.068748     2.888316
 H     0.436280     4.123487     2.810902
 H    -0.108079     2.526447     3.331302
 C     1.951413     2.926397     3.809900
 H     1.716628     3.314496     4.814171
 H     2.781472     3.545211     3.423139
 C     2.404213     1.473987     3.891154
 H     1.606916     0.871922     4.364468
 H     3.289995     1.379407     4.540108
 C     2.708547     0.899957     2.509306
 H     3.586767     1.414850     2.089175
 H     2.981920    -0.161712     2.606763
