  94
scf done:    -2377.880027
 C     0.468430    -3.530769     1.141147
 H     0.678886    -4.358776     0.439688
 H     1.457483    -3.164102     1.459600
 C    -0.242103    -4.073780     2.377548
 H    -1.193076    -4.569389     2.124750
 H     0.374869    -4.812553     2.922810
 H    -0.487645    -3.270810     3.093021
Ir    -0.660316    -1.999807     0.152097
 C     2.133166     0.057142     1.234354
 C     2.656359    -2.054046    -0.757735
 C     1.402201     0.423137    -1.598922
 C    -2.428374    -0.039772    -2.309635
 C    -3.802719    -0.625861     0.195293
 C    -1.721725     1.415452     0.073762
 P    -2.098864    -0.297934    -0.498589
 P     1.370830    -0.824259    -0.191328
 C    -1.975386    -3.268466    -0.122183
 O    -2.739027    -4.080580    -0.430732
 H     1.490589     0.935658     1.401402
 C     2.222837    -0.774630     2.503182
 H     2.914835    -1.624721     2.398426
 H     1.241284    -1.180075     2.784549
 H     3.119167     0.445250     0.940314
 H     2.582053    -0.151091     3.335700
 H     2.724075    -2.799973     0.045979
 H     2.184902    -2.563967    -1.611384
 C     4.000239    -1.507427    -1.114438
 C     4.339941    -1.235611    -2.445096
 H     3.635875    -1.482653    -3.244236
 C     4.943346    -1.220207    -0.116856
 H     4.703131    -1.456645     0.923328
 C     5.571410    -0.663094    -2.757744
 H     5.823891    -0.454642    -3.800105
 C     6.180038    -0.640371    -0.410100
 C     7.151242    -0.299886     0.682494
 H     8.180801    -0.572358     0.406287
 H     7.146012     0.783892     0.886371
 H     6.900122    -0.814091     1.620696
 C     6.481335    -0.358596    -1.749688
 H     7.445371     0.091129    -2.003181
 H     1.920142    -0.092507    -2.422584
 H     0.359529     0.536531    -1.921256
 C     2.020299     1.777601    -1.384138
 C     1.248196     2.937837    -1.517119
 H     0.198395     2.859913    -1.809672
 C     3.380547     1.927103    -1.088138
 H     4.014580     1.041617    -1.025328
 C     1.809488     4.196653    -1.314395
 H     1.190982     5.090680    -1.426814
 C     3.961653     3.179935    -0.874543
 C     5.416306     3.283228    -0.516943
 H     6.006640     2.513873    -1.036029
 H     5.828387     4.270416    -0.770469
 H     5.565047     3.132105     0.565734
 C     3.155649     4.319151    -0.981819
 H     3.591988     5.309088    -0.822821
 H    -3.148454    -0.832192    -2.574448
 C    -2.903998     1.321343    -2.797875
 H    -2.137415     2.096667    -2.649539
 H    -3.819020     1.652281    -2.287947
 H    -1.493326    -0.328677    -2.815430
 H    -3.118015     1.285360    -3.877595
 H    -4.100589    -1.588602    -0.247461
 H    -3.646484    -0.816580     1.267616
 C    -4.854613     0.414683    -0.019692
 C    -4.953358     1.523219     0.832490
 H    -4.283374     1.605106     1.693182
 C    -5.746552     0.317202    -1.093296
 H    -5.686335    -0.554177    -1.753137
 C    -5.900901     2.513441     0.588188
 H    -5.967710     3.376762     1.254844
 C    -6.707170     1.300462    -1.351557
 C    -7.665345     1.150018    -2.497564
 H    -7.181034     0.687812    -3.370459
 H    -8.514512     0.504532    -2.217609
 H    -8.078651     2.120144    -2.808179
 C    -6.766075     2.408672    -0.499175
 H    -7.505190     3.192719    -0.684933
 H    -1.019885     1.830105    -0.661573
 H    -2.638293     2.022994    -0.018545
 C    -1.119711     1.575533     1.443213
 C    -1.239923     0.614962     2.454494
 H    -1.752905    -0.330537     2.258878
 C    -0.389266     2.738568     1.712952
 H    -0.268048     3.482936     0.921036
 C    -0.645980     0.829133     3.696709
 H    -0.737862     0.067638     4.474916
 C     0.228583     2.961368     2.947088
 C     1.025396     4.212705     3.177462
 H     1.697331     4.414814     2.328939
 H     0.365689     5.089348     3.285630
 H     1.634636     4.141276     4.089449
 C     0.085684     1.988117     3.942575
 H     0.563331     2.136239     4.914977
