  42
scf done:    -1297.239402
 C    -2.083917    -1.404319     0.972969
 H    -1.865005    -2.330180     1.531874
 H    -2.489754    -0.713669     1.731829
 C    -3.158732    -1.714650    -0.065158
 H    -2.811508    -2.461599    -0.796844
 H    -4.082506    -2.114970     0.393419
 H    -3.450073    -0.828076    -0.652580
Ir    -0.239600    -0.622590     0.210512
 C    -1.421833     2.254074    -1.398959
 C    -2.836389     1.769021     1.042385
 C    -0.256378     2.901091     1.131326
 C     2.850467     0.672704     1.140710
 C     2.986562    -1.183231    -1.050458
 C     2.190901     1.466559    -1.562777
 P     1.896003     0.114506    -0.344253
 P    -1.179705     1.553409     0.289744
 C     0.191283    -2.384525    -0.148563
 O     0.410225    -3.479699    -0.438794
 H    -0.413392     2.418142    -1.808059
 C    -2.219879     1.344641    -2.320063
 H    -3.254362     1.213773    -1.968317
 H    -1.756410     0.346844    -2.367936
 H    -1.893707     3.246763    -1.296166
 H    -2.267664     1.762031    -3.337363
 H    -3.550489     1.070299     0.586736
 H    -2.784261     1.544337     2.117037
 H    -3.189131     2.802116     0.902925
 H    -0.796006     3.858276     1.064371
 H    -0.121296     2.636623     2.190086
 H     0.737789     3.019325     0.679258
 H     2.817647    -0.191624     1.824474
 C     4.274973     1.163601     0.938731
 H     4.315950     2.062171     0.304291
 H     4.913788     0.397290     0.473993
 H     2.231828     1.445425     1.624813
 H     4.735629     1.426647     1.903651
 H     3.051208    -2.023998    -0.345101
 H     2.530479    -1.558575    -1.977940
 H     3.997747    -0.810834    -1.272048
 H     1.673863     1.208364    -2.498476
 H     1.778743     2.417095    -1.194803
 H     3.261460     1.606462    -1.775436
