  64
scf done:    -1833.676146
 C     2.541156    -1.462808    -1.322084
 H     2.574175    -1.758951    -2.382923
 H     3.190892    -0.570390    -1.266074
 C     3.129274    -2.594096    -0.483291
 H     2.506538    -3.501834    -0.533930
 H     4.143820    -2.880695    -0.817721
 H     3.200643    -2.337175     0.587258
Ir     0.522943    -1.020471    -0.728401
 C     2.838660     0.858455     1.093702
 O     0.269653     0.854726     1.932908
 O     1.701581    -1.227382     2.466069
 C    -2.422759     0.816157     0.038105
 O    -2.787986    -1.654459    -0.764021
 O    -1.728284    -1.410049     1.566571
 P    -1.610984    -0.819831     0.034965
 P     1.346604    -0.187495     1.242923
 C     0.045549    -0.984122    -2.532923
 O    -0.215683    -0.807416    -3.640997
 H     3.149023     1.233733     2.082679
 H     3.645394     0.199197     0.731454
 C     2.609430     2.008119     0.119481
 H     2.193639     1.599043    -0.817844
 H     1.829580     2.675595     0.524006
 C     3.872895     2.802216    -0.174995
 H     4.640476     2.122072    -0.587049
 H     4.295329     3.195056     0.768608
 C     3.646099     3.952979    -1.145356
 H     3.220225     3.552758    -2.081987
 H     2.874772     4.626855    -0.731999
 C     4.907807     4.743463    -1.451141
 H     4.711388     5.566403    -2.154920
 H     5.682378     4.100744    -1.899670
 H     5.336444     5.183619    -0.536125
 C     0.389950     1.303795     3.258670
 H     0.337031     0.463214     3.969293
 H     1.327364     1.863458     3.428699
 H    -0.452176     1.982585     3.453610
 C     2.791332    -1.154169     3.352949
 H     3.754708    -1.245801     2.824644
 H     2.797842    -0.221405     3.941968
 H     2.698446    -2.000511     4.047794
 H    -1.943879     1.356148     0.871887
 H    -2.033177     1.293350    -0.877767
 C    -3.942526     0.909639     0.067724
 H    -4.356732     0.271501    -0.728883
 H    -4.337720     0.505331     1.013301
 C    -4.437277     2.339572    -0.104423
 H    -4.051567     2.746093    -1.057116
 H    -4.004119     2.977852     0.687726
 C    -5.954366     2.463579    -0.080484
 H    -6.380232     1.818414    -0.869107
 H    -6.335542     2.057313     0.873481
 C    -6.447769     3.889794    -0.262673
 H    -7.546653     3.946820    -0.240390
 H    -6.112665     4.307885    -1.225554
 H    -6.064229     4.550110     0.531966
 C    -2.545545    -2.994645    -1.134690
 H    -1.513805    -3.124948    -1.504854
 H    -2.699962    -3.676328    -0.281476
 H    -3.253809    -3.254420    -1.933597
 C    -2.934741    -1.476100     2.285418
 H    -3.183422    -0.502963     2.743121
 H    -3.775602    -1.794608     1.647315
 H    -2.802958    -2.213313     3.090573
