 104
scf done:    -2757.226332
 C     1.555209    -2.539117    -1.985541
 H     1.775212    -2.348726    -3.049201
 H     2.534671    -2.538775    -1.482386
 C     0.913282    -3.914185    -1.825944
 H    -0.049771    -3.983283    -2.357754
 H     1.561599    -4.716695    -2.223799
 H     0.717916    -4.155228    -0.768460
Ir     0.179039    -1.116389    -1.178842
 C     3.486617    -0.558523    -0.034673
 O     1.513890     1.211068     0.565017
 O     1.690148    -0.880634     1.939921
 C    -1.652620     1.014396     1.240476
 O    -2.770194     0.427479    -1.206947
 O    -2.397743    -1.474420     0.513236
 P    -1.621986    -0.156533    -0.162232
 P     1.708258    -0.405925     0.327439
 C    -0.600699    -0.996992    -2.882916
 O    -0.979095    -0.768846    -3.944773
 H     4.041659    -0.087564     0.791740
 H     3.694928    -1.641535     0.010180
 C     3.888032     0.018627    -1.385173
 H     3.160951    -0.299649    -2.151346
 H     3.826504     1.118115    -1.339855
 C     5.291836    -0.390363    -1.805608
 H     5.345725    -1.492776    -1.862938
 H     6.013286    -0.092179    -1.023003
 C     5.715620     0.206466    -3.139991
 H     4.984714    -0.088751    -3.913207
 H     5.655658     1.307631    -3.077546
 C     7.113525    -0.207433    -3.569725
 H     7.390689     0.239200    -4.536579
 H     7.190975    -1.301573    -3.674826
 H     7.868307     0.105328    -2.830152
 C     2.435524     2.114636     1.026248
 C     3.004560     1.978363     2.292635
 H     2.731073     1.113919     2.899367
 C     2.725663     3.210631     0.198709
 C     2.073849     3.357177    -1.143878
 H     2.709428     3.935004    -1.829330
 H     1.851458     2.381704    -1.597531
 H     1.112435     3.890847    -1.056904
 C     3.893093     2.946368     2.753746
 H     4.339663     2.842675     3.745273
 C     3.619747     4.166759     0.692172
 H     3.863422     5.028608     0.064875
 C     4.201538     4.043948     1.952184
 H     4.896240     4.807716     2.308216
 C     1.521236    -2.205689     2.276572
 C     0.360520    -2.892480     1.922007
 H    -0.428307    -2.384387     1.363521
 C     2.539438    -2.822878     3.020080
 C     3.765633    -2.057901     3.417414
 H     4.338708    -1.723121     2.538950
 H     3.504349    -1.152682     3.987309
 H     4.428297    -2.675571     4.038492
 C     0.210277    -4.228108     2.288982
 H    -0.699158    -4.761894     2.004411
 C     2.355321    -4.160582     3.383508
 H     3.136149    -4.656908     3.966338
 C     1.209909    -4.865994     3.018897
 H     1.097265    -5.912058     3.312135
 H    -2.649720     0.978842     1.707095
 H    -0.944302     0.549259     1.949095
 C    -1.236344     2.452669     0.946267
 H    -0.454751     2.463878     0.172331
 H    -2.094488     3.009304     0.540290
 C    -0.706377     3.157123     2.187140
 H     0.154275     2.588870     2.580339
 H    -1.474095     3.135154     2.982277
 C    -0.279670     4.595029     1.930648
 H     0.421280     4.612269     1.078842
 H    -1.157455     5.185486     1.613381
 C     0.385210     5.245728     3.132327
 H     0.669300     6.288574     2.924548
 H     1.301235     4.701675     3.413237
 H    -0.283281     5.250512     4.008630
 C    -3.534589     1.563388    -1.108755
 C    -4.644937     1.612739    -0.270609
 H    -4.910191     0.737287     0.323742
 C    -3.168227     2.650977    -1.918085
 C    -1.966710     2.551623    -2.805555
 H    -1.057619     2.326310    -2.224198
 H    -2.073188     1.731736    -3.531861
 H    -1.802637     3.488559    -3.354497
 C    -5.402950     2.781212    -0.206902
 H    -6.271332     2.823968     0.454298
 C    -3.950380     3.805344    -1.837869
 H    -3.680512     4.666597    -2.455024
 C    -5.054199     3.879945    -0.987828
 H    -5.644988     4.797519    -0.941936
 C    -3.721697    -1.543430     0.859507
 C    -4.117372    -1.207544     2.153625
 H    -3.358212    -0.901234     2.875434
 C    -4.642710    -2.004722    -0.095859
 C    -4.184116    -2.416643    -1.460520
 H    -4.972555    -2.968833    -1.989207
 H    -3.907026    -1.539677    -2.065037
 H    -3.286071    -3.049518    -1.397558
 C    -5.463553    -1.276199     2.506857
 H    -5.774537    -1.006936     3.518738
 C    -5.986112    -2.065492     0.287721
 H    -6.722222    -2.416643    -0.440389
 C    -6.401903    -1.695227     1.566190
 H    -7.459933    -1.750551     1.831681
