  78
scf done:    -2141.263934
 C    -1.612660    -2.796557    -0.468580
 H    -1.216597    -3.815736    -0.334325
 H    -2.462934    -2.703410     0.222842
 C    -2.092718    -2.636206    -1.907662
 H    -1.270822    -2.741271    -2.634961
 H    -2.848168    -3.400113    -2.170092
 H    -2.559910    -1.653651    -2.084858
Ir    -0.124112    -1.323223    -0.018178
 O    -2.247060     1.203689    -1.159552
 O    -3.290018    -0.485712     0.279314
 O    -1.773646     1.314627     1.259945
 O     2.828342    -0.229427     1.153367
 O     2.594677     0.169998    -1.257836
 O     1.354001     1.687298     0.362640
 P     1.643240     0.095328     0.085365
 P    -1.848568     0.203793     0.067413
 C     0.911670    -2.750968     0.604936
 O     1.459833    -3.621742     1.117530
 C    -1.360860     2.230042    -1.617653
 H    -0.359620     2.048226    -1.191507
 C    -1.860862     3.569008    -1.114579
 H    -1.884984     3.570334    -0.016319
 H    -2.878185     3.762888    -1.488669
 H    -1.203983     4.382610    -1.458035
 C    -1.301722     2.134217    -3.127518
 H    -0.973424     1.131446    -3.437449
 H    -2.296679     2.315385    -3.562410
 H    -0.602656     2.878080    -3.539045
 C    -4.515856     0.259954     0.360810
 H    -4.269570     1.314173     0.572704
 C    -5.310291    -0.315350     1.513482
 H    -4.751966    -0.224960     2.455341
 H    -5.517126    -1.381962     1.337633
 H    -6.269019     0.213312     1.622369
 C    -5.235918     0.161307    -0.968516
 H    -4.613731     0.584507    -1.767849
 H    -5.448099    -0.892052    -1.207399
 H    -6.189259     0.710173    -0.931816
 C    -1.081436     1.098898     2.497302
 H    -0.067105     0.740832     2.256569
 C    -1.785123     0.054502     3.339489
 H    -1.824825    -0.909382     2.810400
 H    -2.811438     0.372512     3.579950
 H    -1.240067    -0.099618     4.282733
 C    -0.995544     2.452331     3.165268
 H    -0.511370     3.173613     2.492440
 H    -2.000990     2.827619     3.411514
 H    -0.408840     2.388555     4.093469
 C     4.209554    -0.515881     0.879694
 H     4.558897     0.172535     0.092956
 C     4.363632    -1.941038     0.388763
 H     3.797827    -2.091625    -0.541092
 H     3.995080    -2.653450     1.141280
 H     5.422541    -2.160908     0.185173
 C     4.963862    -0.248449     2.164367
 H     4.847259     0.798247     2.479655
 H     4.585949    -0.896795     2.969218
 H     6.036275    -0.451668     2.027304
 C     2.019996     0.391662    -2.549059
 H     1.168254     1.085627    -2.436392
 C     1.515581    -0.910483    -3.136877
 H     0.755516    -1.356248    -2.469478
 H     2.342309    -1.628629    -3.249148
 H     1.060015    -0.740904    -4.124051
 C     3.084937     1.061597    -3.390419
 H     3.412980     2.004159    -2.928028
 H     3.961506     0.403010    -3.488778
 H     2.700586     1.281030    -4.397435
 C     2.410967     2.652295     0.449831
 H     3.329985     2.203401     0.035385
 C     2.636985     3.009696     1.904893
 H     2.843397     2.101498     2.487027
 H     1.745445     3.496739     2.326469
 H     3.489278     3.698361     2.007839
 C     2.019542     3.839893    -0.404798
 H     1.882256     3.539655    -1.454105
 H     1.074714     4.274381    -0.044195
 H     2.796400     4.618195    -0.367138
