  78
scf done:    -2292.551048
 C    -0.389528    -1.436957    -3.419904
 H     0.410234    -1.867241    -4.044076
 H    -1.108429    -2.251666    -3.239812
 C    -1.072929    -0.308298    -4.185496
 H    -0.387274     0.531392    -4.383980
 H    -1.459657    -0.648964    -5.164658
 H    -1.933423     0.097464    -3.629206
Ir     0.364066    -0.719087    -1.548297
 O    -2.901730    -1.495280    -1.721750
 C    -1.842189    -2.187825     0.727990
 C    -2.563864     0.526478     0.037682
 O     0.527817    -0.395540     1.761192
 C     2.940111     0.146900     0.671401
 C     0.811891     2.057332     0.507594
 P     1.145016     0.263958     0.361650
 P    -1.776775    -0.980325    -0.632113
 C     2.072244    -0.899565    -2.272051
 O     3.126094    -1.085452    -2.693053
 C    -4.202942    -1.881159    -1.354488
 H    -4.194982    -2.807553    -0.756718
 H    -4.720688    -1.092590    -0.780189
 H    -4.760032    -2.063755    -2.284033
 C    -0.792666    -3.108620     0.831744
 H     0.036670    -3.032776     0.119884
 C    -2.891748    -2.249856     1.651132
 H    -3.710008    -1.527098     1.602793
 C    -0.798067    -4.070297     1.834779
 H     0.033006    -4.777646     1.906113
 C    -2.889082    -3.215579     2.654369
 H    -3.712770    -3.247620     3.372987
 C    -1.845940    -4.142881     2.762263
 C    -1.856579    -5.200031     3.826724
 H    -2.206632    -6.162402     3.417400
 H    -0.849210    -5.370388     4.234703
 H    -2.524811    -4.932651     4.657507
 C    -3.264087     1.362742    -0.839897
 H    -3.436074     1.041602    -1.870595
 C    -2.344029     0.960927     1.349659
 H    -1.790365     0.323658     2.040174
 C    -3.725797     2.604203    -0.412813
 H    -4.270749     3.244004    -1.112679
 C    -2.802959     2.206185     1.765335
 H    -2.609807     2.533377     2.790760
 C    -3.492095     3.054669     0.891676
 C    -3.923523     4.422380     1.329070
 H    -4.237208     4.430729     2.383235
 H    -3.088375     5.136378     1.232374
 H    -4.755069     4.801719     0.718220
 C     0.820033     0.050836     3.059774
 H     1.903944     0.190596     3.216001
 H     0.303846     0.999649     3.286565
 H     0.461931    -0.721354     3.756533
 C     3.450701    -1.030122     1.233570
 H     2.760247    -1.811446     1.562820
 C     3.835333     1.126892     0.233775
 H     3.457560     2.048617    -0.215934
 C     4.822513    -1.209379     1.368954
 H     5.202990    -2.131821     1.816909
 C     5.208676     0.935136     0.364219
 H     5.894118     1.712514     0.015257
 C     5.727570    -0.232762     0.932700
 C     7.207847    -0.452496     1.039431
 H     7.577557    -1.038552     0.181355
 H     7.758544     0.498949     1.048076
 H     7.469110    -1.010473     1.950682
 C    -0.020257     2.635059    -0.455904
 H    -0.385404     2.007587    -1.275100
 C     1.309646     2.870706     1.536979
 H     2.003730     2.461309     2.274265
 C    -0.376503     3.978407    -0.375655
 H    -1.035318     4.404672    -1.136686
 C     0.945144     4.209787     1.616028
 H     1.339210     4.827667     2.428239
 C     0.089321     4.785830     0.665646
 C    -0.289358     6.234915     0.760215
 H    -0.707763     6.475399     1.750300
 H     0.589289     6.884668     0.617357
 H    -1.033368     6.508065    -0.001126
