 116
scf done:    -3286.666039
 C     1.451387    -2.087291    -2.225078
 H     1.181530    -2.057171    -3.296347
 H     2.403211    -1.535450    -2.152768
 C     1.694500    -3.534196    -1.809041
 H     0.810415    -4.166976    -1.991755
 H     2.538058    -3.996864    -2.358400
 H     1.926770    -3.619704    -0.734968
Ir    -0.146824    -1.093561    -1.162191
 O     1.282326     1.149595     1.067828
 C     2.507794    -1.347197     0.889201
 C     2.864082     0.876700    -1.049930
 O    -2.869485     0.761923    -1.319463
 C    -3.280928    -1.061634     0.528688
 C    -1.750023     1.366331     1.010759
 P    -1.935765    -0.020428    -0.186425
 P     1.621683    -0.021478    -0.034004
 C    -1.270195    -2.360632    -1.887226
 O    -1.933926    -3.222710    -2.284512
 C     1.780461     1.339354     2.371741
 H     0.953806     1.147728     3.076752
 H     2.584818     0.617941     2.589299
 C     2.287668     2.756218     2.537732
 H     3.079263     2.938048     1.793002
 H     1.463710     3.450050     2.306142
 C     2.812615     3.025687     3.939378
 H     3.626408     2.314365     4.170568
 H     2.014975     2.813712     4.673606
 C     3.311848     4.449190     4.127004
 H     4.130911     4.679518     3.426366
 H     2.507982     5.179015     3.939083
 H     3.687128     4.621552     5.147360
 C     3.702879    -1.972412     0.483178
 O     4.320512    -1.474191    -0.602195
 C     5.389661    -2.160907    -1.183903
 H     5.656129    -1.599782    -2.088807
 H     6.269838    -2.199802    -0.517421
 H     5.105418    -3.189019    -1.465566
 C     1.814005    -1.906164     1.984300
 O     0.653601    -1.315504     2.297964
 C    -0.125028    -1.804625     3.355683
 H    -1.045939    -1.210986     3.349871
 H     0.397868    -1.687235     4.321734
 H    -0.385072    -2.864703     3.208870
 C     2.320390    -3.007332     2.686206
 H     1.780333    -3.418062     3.537725
 C     4.211704    -3.076672     1.180155
 H     5.138067    -3.551590     0.860829
 C     3.518439    -3.577547     2.274602
 H     3.917670    -4.439660     2.814323
 C     2.595739     1.206490    -2.390048
 O     1.378028     0.902530    -2.861872
 C     1.158112     0.794789    -4.240969
 H     0.180698     0.308668    -4.352028
 H     1.131663     1.783736    -4.732287
 H     1.927411     0.168558    -4.721775
 C     4.094276     1.285777    -0.502138
 O     4.280967     0.994042     0.797753
 C     5.544652     1.147779     1.374444
 H     5.471417     0.747555     2.393894
 H     5.847529     2.208236     1.428645
 H     6.312901     0.581637     0.820296
 C     5.058299     1.935142    -1.277524
 H     6.013748     2.235595    -0.849168
 C     3.561243     1.849781    -3.180690
 H     3.350865     2.088618    -4.222634
 C     4.779054     2.201006    -2.615951
 H     5.528320     2.708433    -3.228667
 C    -2.464661     0.882661    -2.664875
 H    -1.406641     1.188949    -2.715716
 H    -2.551587    -0.089285    -3.181855
 C    -3.368396     1.907749    -3.319222
 H    -3.128060     1.951424    -4.396685
 H    -4.409832     1.545846    -3.248456
 C    -3.270845     3.294269    -2.699273
 H    -2.250561     3.686483    -2.852202
 H    -3.393265     3.191789    -1.608795
 C    -4.289313     4.275456    -3.255093
 H    -4.177581     4.403235    -4.344536
 H    -5.318863     3.925140    -3.073693
 H    -4.192345     5.270167    -2.792943
 C    -4.590537    -0.551979     0.638949
 O    -4.719843     0.783984     0.556941
 C    -5.944021     1.344505     0.183836
 H    -5.751806     2.405738    -0.022063
 H    -6.344214     0.869337    -0.727934
 H    -6.700074     1.271915     0.986460
 C    -3.077672    -2.417664     0.846968
 O    -1.806560    -2.837347     0.925370
 C    -1.501515    -4.202168     0.854938
 H    -0.412256    -4.262015     0.728932
 H    -1.986571    -4.678283    -0.012775
 H    -1.792671    -4.736640     1.777345
 C    -4.164078    -3.270062     1.095712
 H    -3.998981    -4.327297     1.300773
 C    -5.680331    -1.395680     0.880685
 H    -6.692543    -0.994459     0.931704
 C    -5.453022    -2.752901     1.088808
 H    -6.299989    -3.417939     1.275244
 C    -2.188590     1.362397     2.341885
 O    -2.681898     0.203707     2.835602
 C    -3.683847     0.242776     3.813159
 H    -4.147000    -0.753674     3.823541
 H    -3.280101     0.459755     4.818185
 H    -4.452960     0.991645     3.561948
 C    -1.134158     2.537839     0.528506
 O    -0.664447     2.476266    -0.729056
 C     0.178961     3.490289    -1.197856
 H     0.510436     3.173793    -2.193285
 H     1.061476     3.602718    -0.546321
 H    -0.347490     4.456987    -1.281391
 C    -1.033260     3.686367     1.319165
 H    -0.570510     4.591428     0.928170
 C    -2.090361     2.506574     3.145525
 H    -2.446238     2.486258     4.175690
 C    -1.523411     3.660275     2.621225
 H    -1.446574     4.555382     3.243433
