 100
scf done:    -2829.062379
 C    -1.206197    -1.535747    -3.269054
 H    -0.706731    -2.227620    -3.964707
 H    -1.933512    -2.154574    -2.718041
 C    -1.936973    -0.446704    -4.048923
 H    -1.243542     0.165931    -4.648142
 H    -2.676862    -0.874314    -4.750471
 H    -2.486482     0.231860    -3.377197
Ir     0.213867    -0.594366    -1.960777
 O    -1.167719    -0.039603     1.047832
 O    -2.900400    -0.240970    -0.856604
 O    -1.827549    -2.273789     0.054173
 O     2.027568     0.000804     0.774152
 O     3.034199     0.975896    -1.357311
 O     1.132966     2.129290    -0.170447
 P     1.587764     0.608227    -0.663034
 P    -1.419892    -0.739133    -0.393254
 C     1.577181    -1.213980    -3.100717
 O     2.403906    -1.705916    -3.724061
 C    -1.688833    -0.510573     2.299538
 H    -2.773835    -0.676791     2.215447
 H    -1.211975    -1.475116     2.536139
 C    -1.384471     0.514639     3.365134
 H    -1.662456     0.075640     4.339264
 H    -0.293304     0.670650     3.400410
 C    -2.094057     1.843983     3.161154
 H    -3.183734     1.686455     3.231224
 H    -1.905029     2.186288     2.132353
 C    -1.653955     2.914410     4.144394
 H    -1.844627     2.614189     5.187674
 H    -0.573566     3.116582     4.055686
 H    -2.182659     3.864236     3.970724
 C    -3.986021    -0.062046    -0.031495
 C    -4.283845     1.222225     0.413098
 H    -3.631960     2.046509     0.119360
 C    -4.786131    -1.143733     0.330360
 H    -4.527720    -2.140501    -0.029008
 C    -5.389846     1.419297     1.235504
 H    -5.615828     2.429014     1.589800
 C    -5.885551    -0.927570     1.156619
 H    -6.509346    -1.778014     1.445565
 C    -6.209174     0.352765     1.624604
 C    -7.416090     0.577068     2.488859
 H    -7.297899     1.467107     3.123595
 H    -7.610568    -0.285726     3.142578
 H    -8.319220     0.730493     1.874595
 C    -0.921623    -3.256453     0.370513
 C    -1.360736    -4.574640     0.264440
 H    -2.376299    -4.765691    -0.086844
 C     0.372984    -2.981853     0.810611
 H     0.738556    -1.955727     0.886947
 C    -0.504224    -5.616084     0.604492
 H    -0.860806    -6.646458     0.519974
 C     1.217399    -4.040948     1.139529
 H     2.232237    -3.815263     1.478048
 C     0.802957    -5.372398     1.045336
 C     1.733608    -6.503623     1.374234
 H     2.184597    -6.924876     0.460145
 H     1.208089    -7.324521     1.884768
 H     2.556973    -6.170964     2.022550
 C     2.297901     0.703346     1.985588
 H     3.208135     1.313497     1.867105
 H     1.458358     1.381718     2.199961
 C     2.472069    -0.321252     3.082466
 H     2.602585     0.219881     4.036072
 H     1.536376    -0.899529     3.178989
 C     3.639316    -1.271123     2.852888
 H     4.575359    -0.687621     2.805168
 H     3.523884    -1.730895     1.857511
 C     3.746396    -2.351550     3.915731
 H     3.879424    -1.918198     4.920280
 H     2.835919    -2.972196     3.944250
 H     4.599252    -3.021632     3.728416
 C     4.097099     1.481990    -0.648418
 C     5.085438     0.609721    -0.198139
 H     4.989636    -0.455111    -0.416993
 C     4.188020     2.846973    -0.383718
 H     3.401834     3.512556    -0.742043
 C     6.159189     1.108219     0.533558
 H     6.928290     0.417583     0.890653
 C     5.269133     3.329148     0.349628
 H     5.333930     4.400297     0.560287
 C     6.271269     2.473878     0.824097
 C     7.448350     3.008344     1.587510
 H     7.837975     2.266596     2.299865
 H     7.186800     3.917168     2.148661
 H     8.274725     3.271659     0.906085
 C    -0.041969     2.762413    -0.467434
 C    -0.747950     2.549572    -1.654097
 H    -0.365434     1.843263    -2.401003
 C    -0.520441     3.680479     0.465206
 H     0.049876     3.848236     1.380699
 C    -1.943826     3.226393    -1.872757
 H    -2.492325     3.032660    -2.798569
 C    -1.711076     4.361118     0.222639
 H    -2.075072     5.075761     0.966151
 C    -2.453845     4.140854    -0.942768
 C    -3.760591     4.839564    -1.185696
 H    -4.608656     4.139420    -1.099319
 H    -3.804316     5.272284    -2.196789
 H    -3.924001     5.651207    -0.462669
