 100
scf done:    -2828.889086
 C    -1.648254    -3.320764    -0.178654
 H    -1.449971    -4.244781     0.388061
 H    -2.610559    -2.948743     0.202434
 C    -1.756438    -3.650233    -1.662688
 H    -0.825911    -4.095219    -2.051595
 H    -2.570982    -4.370449    -1.868793
 H    -1.966720    -2.755722    -2.272043
Ir    -0.079555    -1.889564     0.056577
 O    -1.119267     0.963875    -1.305142
 C    -3.281774    -0.568010    -0.875309
 C    -1.898728     0.684435     1.381955
 O     2.244609    -0.338185     1.643198
 C     3.267182    -1.390483    -0.730897
 C     1.946030     1.086410    -0.767837
 P     1.822636    -0.558754     0.066623
 P    -1.616234    -0.171701    -0.219809
 C     0.811467    -3.160749     1.075183
 O     1.277550    -3.873340     1.854329
 C    -1.714608     2.227058    -1.529692
 H    -2.813039     2.150087    -1.508885
 H    -1.421747     2.912721    -0.713756
 C    -1.224399     2.752915    -2.858778
 H    -0.133966     2.611356    -2.900928
 H    -1.650469     2.138240    -3.671031
 C    -1.564360     4.218750    -3.077088
 H    -1.120771     4.813210    -2.258114
 H    -2.656648     4.366395    -2.998699
 C    -1.069351     4.748892    -4.412883
 H     0.023598     4.638633    -4.498321
 H    -1.519803     4.196728    -5.253197
 H    -1.311482     5.814328    -4.545973
 C    -3.508787    -0.433114    -2.244535
 H    -2.705270    -0.040563    -2.871885
 C    -4.301151    -1.109684    -0.069569
 O    -4.019225    -1.230364     1.240781
 C    -4.931566    -1.852455     2.098163
 H    -5.884928    -1.297491     2.155775
 H    -4.464518    -1.862582     3.090781
 H    -5.137900    -2.890838     1.785991
 C    -4.726508    -0.800561    -2.817775
 H    -4.882593    -0.687092    -3.892400
 C    -5.521798    -1.483619    -0.638074
 H    -6.312780    -1.907324    -0.018803
 C    -5.728724    -1.323683    -2.008595
 H    -6.685982    -1.623634    -2.442035
 C    -1.037567     0.356220     2.431517
 H    -0.226807    -0.349297     2.224802
 C    -2.963348     1.573542     1.638781
 O    -3.796619     1.844334     0.616318
 C    -4.977122     2.557817     0.843436
 H    -5.599816     2.075947     1.617002
 H    -5.526542     2.558062    -0.106678
 H    -4.778615     3.601849     1.143719
 C    -1.202419     0.895083     3.706929
 H    -0.512789     0.618646     4.506900
 C    -3.131485     2.119943     2.916220
 H    -3.953612     2.806679     3.118610
 C    -2.251284     1.777897     3.942863
 H    -2.398655     2.209017     4.936593
 C     3.511463    -0.289673     2.268426
 H     3.416127    -0.900736     3.182419
 H     4.276827    -0.765877     1.639748
 C     3.904765     1.127405     2.629403
 H     4.947325     1.116970     2.996602
 H     3.902110     1.731330     1.706907
 C     2.989966     1.756965     3.669300
 H     3.046393     1.171366     4.604351
 H     1.952886     1.663981     3.312069
 C     3.322597     3.211507     3.955393
 H     4.342396     3.320972     4.359479
 H     3.273379     3.817614     3.035857
 H     2.627651     3.655412     4.684964
 C     3.045905    -2.640224    -1.316416
 H     2.044365    -3.072599    -1.225168
 C     4.545629    -0.802918    -0.880723
 O     4.727147     0.411266    -0.328794
 C     5.879177     1.149952    -0.620504
 H     6.789482     0.671289    -0.219259
 H     5.749784     2.126780    -0.137787
 H     5.997468     1.299530    -1.707276
 C     4.046182    -3.314234    -2.015474
 H     3.840454    -4.289376    -2.460695
 C     5.551251    -1.472020    -1.584945
 H     6.537031    -1.020954    -1.699639
 C     5.298225    -2.724680    -2.143207
 H     6.096023    -3.235822    -2.687993
 C     2.418522     1.146707    -2.080674
 H     2.706863     0.219745    -2.581456
 C     1.522300     2.286350    -0.162098
 O     0.965123     2.197091     1.058347
 C     0.416021     3.341739     1.650597
 H     1.188986     4.094471     1.881362
 H    -0.056791     3.010615     2.582845
 H    -0.353624     3.801208     1.007013
 C     2.556011     2.354664    -2.762716
 H     2.937393     2.364996    -3.785815
 C     1.682862     3.506756    -0.831454
 H     1.389504     4.438921    -0.348974
 C     2.210037     3.539061    -2.120892
 H     2.326895     4.500011    -2.628141
