 108
scf done:    -3057.700978
 C    -1.830312    -2.680774    -0.722015
 H    -2.442800    -3.078955     0.104165
 H    -2.479213    -1.967152    -1.253924
 C    -1.504243    -3.832007    -1.667718
 H    -0.947463    -4.641478    -1.168445
 H    -2.419789    -4.285445    -2.092731
 H    -0.890984    -3.508393    -2.525222
Ir    -0.168985    -1.570980     0.042031
 C    -1.577508     1.200078     2.035748
 C    -1.571744     1.603253    -0.937851
 C    -3.480637    -0.217590     0.310595
 C     2.867390    -1.535311     1.805139
 C     3.236116    -0.477564    -0.771562
 C     1.792030     1.285345     0.992233
 P     1.908286    -0.512314     0.551197
 P    -1.702640     0.305861     0.385139
 C     0.564941    -3.193026     0.409885
 O     0.964785    -4.233409     0.745597
 H    -0.947081     2.064520     1.779270
 C    -2.910512     1.696388     2.583506
 H    -2.725725     2.371038     3.436734
 H    -3.499953     2.239705     1.836763
 H    -3.512399     0.854365     2.954534
 C    -0.851243     0.378327     3.092331
 H    -0.002466    -0.173754     2.674167
 H    -0.483779     1.049937     3.884344
 H    -1.525106    -0.354407     3.551559
 C    -1.200123     1.131602    -2.213778
 O    -0.938644    -0.180755    -2.309929
 C    -0.261545    -0.686335    -3.427163
 H    -0.010199    -1.722252    -3.175541
 H    -0.895028    -0.668974    -4.330920
 H     0.669658    -0.127186    -3.615976
 C    -1.840850     2.978876    -0.821132
 O    -2.195768     3.435056     0.393523
 C    -2.376634     4.802347     0.608858
 H    -2.615543     4.917577     1.674154
 H    -3.210898     5.209365     0.010908
 H    -1.460505     5.375788     0.383960
 C    -1.759275     3.839267    -1.925880
 H    -1.975553     4.901044    -1.817836
 C    -1.138315     1.976475    -3.329302
 H    -0.870513     1.581162    -4.308104
 C    -1.427293     3.324974    -3.173450
 H    -1.385620     3.991944    -4.038456
 C    -4.461784     0.191264    -0.615086
 O    -4.142576     1.181103    -1.468142
 C    -5.022589     1.554722    -2.485373
 H    -4.503683     2.329183    -3.065114
 H    -5.265019     0.707933    -3.151279
 H    -5.963835     1.973667    -2.086724
 C    -3.839409    -1.229583     1.222685
 O    -2.890477    -1.546577     2.119564
 C    -2.935628    -2.765870     2.805149
 H    -1.957352    -2.882039     3.288774
 H    -3.087760    -3.608434     2.110535
 H    -3.728196    -2.774745     3.574032
 C    -5.093252    -1.846607     1.202324
 H    -5.335809    -2.634786     1.914282
 C    -5.724881    -0.419157    -0.641053
 H    -6.474560    -0.100507    -1.363819
 C    -6.025413    -1.432381     0.260429
 H    -7.010784    -1.903536     0.230450
 H     2.979465    -2.421846     1.152447
 C     4.266509    -1.070075     2.180717
 H     4.743991    -1.836834     2.813416
 H     4.904023    -0.924923     1.298771
 H     4.236122    -0.129758     2.745885
 C     2.061776    -1.992475     3.015770
 H     1.029592    -2.246673     2.737327
 H     2.531660    -2.891165     3.446188
 H     2.025267    -1.216623     3.788889
 C     4.261669     0.492094    -0.809925
 O     4.320152     1.353987     0.222637
 C     5.247334     2.396896     0.233132
 H     5.045357     2.975825     1.143732
 H     6.286943     2.025510     0.263569
 H     5.132334     3.061710    -0.640976
 C     3.251757    -1.456701    -1.786651
 O     2.359658    -2.449648    -1.673855
 C     2.336027    -3.505869    -2.587337
 H     1.542880    -4.182105    -2.245107
 H     3.296031    -4.050774    -2.606910
 H     2.099724    -3.162284    -3.610238
 C     4.168211    -1.403704    -2.848514
 H     4.149231    -2.160629    -3.631331
 C     5.181568     0.552737    -1.865309
 H     5.954380     1.319997    -1.883319
 C     5.115430    -0.390422    -2.883086
 H     5.831867    -0.347493    -3.707050
 C     1.540377     2.181573    -0.063946
 O     1.558890     1.659336    -1.308105
 C     1.995459     2.465305    -2.369132
 H     2.198622     1.790405    -3.210993
 H     1.230884     3.194921    -2.677311
 H     2.927602     2.993337    -2.105472
 C     1.877177     1.829577     2.285460
 O     2.221607     0.986152     3.279649
 C     2.349753     1.464740     4.585620
 H     2.643397     0.606197     5.203805
 H     1.398012     1.869532     4.971838
 H     3.128073     2.244245     4.662509
 C     1.639157     3.190261     2.521248
 H     1.683598     3.592215     3.532308
 C     1.319416     3.544447     0.156293
 H     1.101132     4.202999    -0.683903
 C     1.353975     4.035508     1.454322
 H     1.166638     5.095686     1.641358
