  82
scf done:    -2990.131709
 C     2.150780    -1.381767    -2.726770
 H     1.914076    -1.800107    -3.717234
 H     2.724131    -0.462916    -2.916400
 C     3.003098    -2.377457    -1.947770
 H     2.487020    -3.340395    -1.801478
 H     3.950161    -2.599292    -2.473178
 H     3.272804    -1.999254    -0.948080
Ir     0.382489    -0.974214    -1.592551
 O     1.510578     0.901851     1.090295
 O     3.134148     0.727625    -0.870075
 O     1.183486     2.210164    -0.968857
 O    -2.870776    -0.634801    -1.099620
 O    -1.891235    -2.346734     0.428281
 O    -1.529953     0.125726     0.956287
 P    -1.490388    -0.908074    -0.333444
 P     1.545977     0.676784    -0.508903
 C    -0.570546    -1.739109    -3.016546
 O    -1.156937    -2.079101    -3.942592
 C     1.489439    -0.208085     2.008811
 H     0.847171    -0.992900     1.574243
 C     0.863188     0.304306     3.283437
 H    -0.141951     0.696626     3.080272
 H     1.477693     1.108889     3.715357
 H     0.783815    -0.509352     4.018571
 C     2.887268    -0.762105     2.196254
 H     3.291394    -1.148024     1.248693
 H     3.570111     0.015169     2.571021
 H     2.869163    -1.596124     2.913124
 C     4.146970     1.372952    -0.209535
 C     5.381048     0.723306    -0.185980
 H     5.474038    -0.245345    -0.680177
 C     3.989094     2.614406     0.406245
 H     3.024028     3.117308     0.371972
 C     6.465195     1.309939     0.458724
 H     7.440986     0.822205     0.489718
 C     5.072146     3.199412     1.057795
 H     4.978060     4.169303     1.549374
 C     6.295955     2.542488     1.078499
 F     7.329602     3.106810     1.703003
 C    -0.060189     2.786028    -1.026388
 C    -1.070688     2.272129    -1.839939
 H    -0.883339     1.353379    -2.401599
 C    -0.265728     3.960682    -0.302933
 H     0.539673     4.348174     0.322787
 C    -2.299430     2.922373    -1.909944
 H    -3.111046     2.525696    -2.521712
 C    -1.485191     4.628943    -0.392944
 H    -1.668591     5.553645     0.157033
 C    -2.491311     4.095416    -1.190284
 F    -3.667789     4.718906    -1.255420
 C    -4.172714    -1.237959    -0.934865
 H    -4.220454    -1.694735     0.064379
 C    -4.327464    -2.315675    -1.985673
 H    -3.565896    -3.096695    -1.849884
 H    -4.213984    -1.890454    -2.994137
 H    -5.320020    -2.784335    -1.911113
 C    -5.187558    -0.122364    -1.036251
 H    -5.007840     0.636708    -0.261623
 H    -5.126503     0.362370    -2.022430
 H    -6.205021    -0.519586    -0.906588
 C    -0.882863    -2.972316     1.126419
 C     0.156368    -3.608443     0.442413
 H     0.137992    -3.639744    -0.648851
 C    -0.883038    -2.928770     2.520015
 H    -1.692458    -2.421308     3.045649
 C     1.213954    -4.170387     1.151851
 H     2.047889    -4.651467     0.638316
 C     0.165742    -3.502915     3.234851
 H     0.193048    -3.475479     4.325526
 C     1.209248    -4.101621     2.539798
 F     2.233749    -4.612023     3.221723
 C    -2.660454     0.594978     1.576755
 C    -3.562718    -0.250271     2.223999
 H    -3.390506    -1.326318     2.228637
 C    -2.871789     1.972408     1.567284
 H    -2.144579     2.609122     1.064840
 C    -4.691341     0.284715     2.842026
 H    -5.416009    -0.354028     3.349911
 C    -3.995820     2.511463     2.183874
 H    -4.185138     3.586294     2.175603
 C    -4.896881     1.658621     2.811901
 F    -5.976956     2.168198     3.400756
