  96
scf done:    -2528.245004
 C     0.587372    -2.787926     1.339716
 H     0.027190    -2.985619     2.269856
 H    -0.064662    -3.127184     0.512553
 C     1.870160    -3.608391     1.328871
 H     2.484894    -3.408900     2.221524
 H     1.666048    -4.695299     1.306199
 H     2.492218    -3.377036     0.449802
Ir     0.988007    -0.719591     1.027655
 O    -1.586273    -0.967519    -1.141515
 C    -2.312919    -1.464171     1.535737
 C    -1.879321     1.255682     0.519588
 O     0.893919     2.611649     0.103097
 C     3.402489     1.919173     0.901302
 C     2.249739     0.989380    -1.643970
 P     1.835942     1.237985     0.152322
 P    -1.215237    -0.471956     0.392945
 C     2.082547    -0.708378     2.517676
 O     2.595338    -0.597992     3.551160
 C    -2.862123    -1.250228    -1.694928
 H    -3.666029    -0.830160    -1.071692
 H    -2.916213    -0.727158    -2.663221
 C    -3.042276    -2.740456    -1.894997
 H    -2.197562    -3.119106    -2.495614
 H    -2.971900    -3.255429    -0.920511
 C    -4.362830    -3.083578    -2.569736
 H    -4.415364    -2.568924    -3.545175
 H    -5.197250    -2.669718    -1.975019
 C    -4.566183    -4.577148    -2.765156
 H    -3.765637    -5.010044    -3.385829
 H    -4.558031    -5.110790    -1.801221
 H    -5.525322    -4.795043    -3.258419
 H    -1.722042    -1.475840     2.463175
 H    -2.287718    -2.493232     1.148731
 C    -3.709950    -1.007280     1.826466
 C    -4.816869    -1.499789     1.123382
 H    -4.670888    -2.264122     0.357407
 C    -3.943614    -0.074865     2.847821
 H    -3.101187     0.287888     3.443742
 C    -6.103628    -1.040646     1.393868
 H    -6.948884    -1.437967     0.826741
 C    -5.229370     0.385170     3.124616
 H    -5.383434     1.113142     3.924738
 C    -6.315372    -0.087077     2.388745
 H    -7.324435     0.272936     2.601925
 H    -0.980707     1.885179     0.473605
 H    -2.308884     1.363587     1.524855
 C    -2.853778     1.678387    -0.535033
 C    -4.217515     1.833913    -0.262069
 H    -4.590458     1.635172     0.745218
 C    -2.400353     1.930244    -1.837390
 H    -1.339465     1.799715    -2.063153
 C    -5.103105     2.227684    -1.263847
 H    -6.164276     2.342462    -1.029658
 C    -3.283055     2.323672    -2.839382
 H    -2.909085     2.515621    -3.848200
 C    -4.641091     2.472979    -2.556019
 H    -5.336101     2.781660    -3.340472
 C     1.280033     3.843445    -0.481779
 H     1.826481     4.448177     0.265683
 H     1.962376     3.674061    -1.333944
 C     0.046846     4.587087    -0.951064
 H     0.378359     5.505366    -1.467107
 H    -0.465224     3.973225    -1.710704
 C    -0.932145     4.940660     0.160482
 H    -0.443911     5.638482     0.863987
 H    -1.155514     4.033124     0.742724
 C    -2.227420     5.540814    -0.361506
 H    -2.041419     6.455348    -0.948140
 H    -2.757386     4.826874    -1.011994
 H    -2.907826     5.806350     0.461465
 H     3.267903     1.822576     1.989376
 H     3.439243     2.993291     0.668407
 C     4.674085     1.266739     0.448786
 C     5.472039     1.887177    -0.522048
 H     5.172302     2.861031    -0.920639
 C     5.091000     0.031647     0.961787
 H     4.493221    -0.465060     1.726526
 C     6.646387     1.290231    -0.977223
 H     7.255355     1.794944    -1.731128
 C     6.260925    -0.569090     0.504163
 H     6.563386    -1.535573     0.913771
 C     7.042358     0.054239    -0.468075
 H     7.961212    -0.418221    -0.823085
 H     3.087125     1.632126    -1.953112
 H     1.347079     1.319765    -2.183798
 C     2.535985    -0.457851    -1.942209
 C     1.476779    -1.372912    -2.038425
 H     0.441818    -1.032759    -1.954491
 C     3.844741    -0.926296    -2.090248
 H     4.680749    -0.228337    -2.016921
 C     1.728244    -2.724866    -2.263537
 H     0.888925    -3.421974    -2.325195
 C     4.093087    -2.278327    -2.319015
 H     5.124127    -2.623851    -2.426654
 C     3.036862    -3.184147    -2.401144
 H     3.233272    -4.245200    -2.572554
