  78
scf done:    -2292.538908
 C     1.156054    -2.878640     1.231374
 H     1.579770    -3.626760     0.540388
 H     2.036140    -2.418978     1.713474
 C     0.307730    -3.585328     2.282931
 H    -0.515713    -4.158574     1.826489
 H     0.903398    -4.295962     2.885399
 H    -0.155957    -2.879585     2.992291
Ir    -0.035764    -1.440420     0.166256
 O     2.144147     0.297357     2.090381
 C     3.283945    -0.690657    -0.172209
 C     1.799001     1.671556    -0.278478
 O    -1.533702     0.636558    -2.102066
 C    -3.338657    -0.529776    -0.361437
 C    -1.745976     1.653645     0.410433
 P    -1.607312     0.092024    -0.545222
 P     1.733118     0.011921     0.518447
 C    -0.835580    -2.872885    -0.727500
 O    -1.173972    -3.735847    -1.412680
 C     1.275778    -0.076588     3.135998
 H     1.772976    -0.817950     3.779431
 H     1.020493     0.812505     3.733781
 H     0.344879    -0.520100     2.739905
 C     3.147870    -1.757975    -1.066709
 H     2.141196    -2.141991    -1.258151
 C     4.565024    -0.160189     0.103071
 C     4.795217     1.002917     1.022102
 H     4.463542     0.774199     2.043702
 H     4.223111     1.884921     0.694869
 H     5.859300     1.274338     1.042953
 C     4.255272    -2.321482    -1.693967
 H     4.124901    -3.153830    -2.389089
 C     5.663979    -0.753466    -0.528913
 H     6.661659    -0.358647    -0.318276
 C     5.521714    -1.817839    -1.416141
 H     6.405642    -2.250327    -1.891496
 C     2.027671     1.632867    -1.662355
 H     2.113752     0.664933    -2.162767
 C     1.684232     2.915847     0.374800
 C     1.411977     3.062029     1.842279
 H     0.523151     2.490502     2.143034
 H     1.228609     4.115452     2.091382
 H     2.256740     2.698197     2.444302
 C     2.178866     2.797393    -2.406524
 H     2.364957     2.739273    -3.481125
 C     1.848538     4.075830    -0.395801
 H     1.771309     5.044692     0.105013
 C     2.103004     4.029723    -1.762150
 H     2.230583     4.957502    -2.324912
 C    -1.079289    -0.249176    -3.101027
 H    -0.170033    -0.780661    -2.771868
 H    -1.849501    -0.996875    -3.357092
 H    -0.853987     0.352567    -3.992538
 C    -3.511161    -1.657005     0.452218
 H    -2.625901    -2.118944     0.899284
 C    -4.474914     0.095724    -0.926628
 C    -4.405864     1.355700    -1.737190
 H    -3.739869     1.251587    -2.603352
 H    -4.007009     2.182323    -1.128632
 H    -5.406013     1.645681    -2.086435
 C    -4.770783    -2.194250     0.701328
 H    -4.872787    -3.073592     1.341071
 C    -5.729318    -0.475515    -0.682248
 H    -6.610622    -0.006376    -1.128295
 C    -5.886432    -1.604873     0.117173
 H    -6.884098    -2.017419     0.286439
 C    -2.022284     1.409604     1.765989
 H    -2.118414     0.374386     2.108336
 C    -1.620676     2.982106    -0.048459
 C    -1.325014     3.367633    -1.468024
 H    -2.165425     3.125661    -2.133561
 H    -0.454863     2.831005    -1.861394
 H    -1.130151     4.446365    -1.531431
 C    -2.193474     2.445438     2.675709
 H    -2.415131     2.225344     3.722262
 C    -1.796530     4.009656     0.892404
 H    -1.700776     5.043051     0.548281
 C    -2.083280     3.760732     2.229539
 H    -2.214725     4.594227     2.923647
