  90
scf done:    -2149.894895
 C     1.198689    -2.055350     2.265470
 H     1.060778    -3.148848     2.257264
 H     2.288296    -1.902188     2.204697
 C     0.682286    -1.482373     3.580619
 H    -0.396478    -1.666041     3.710716
 H     1.194849    -1.928638     4.453892
 H     0.844891    -0.394424     3.633201
Ir     0.094473    -1.100555     0.676538
 O     2.555060     0.602087     2.075368
 C     3.372723    -0.747345    -0.226451
 C     2.183701     1.937987    -0.238378
 O    -1.226693     0.432762    -2.188335
 C    -3.041641    -1.040292    -0.800309
 C    -1.970645     1.655178     0.026698
 P    -1.503916    -0.016055    -0.597212
 P     2.011581     0.267477     0.544830
 C    -0.778567    -2.721779     0.550412
 O    -1.199681    -3.788090     0.406476
 C     3.848386     1.013928     2.419950
 H     4.593063     0.217210     2.251353
 H     4.168868     1.918891     1.872752
 H     3.839152     1.248608     3.494233
 H     3.666456    -1.389398     0.626464
 C     4.614751    -0.000892    -0.721525
 H     5.018632     0.675353     0.045669
 H     4.338723     0.634327    -1.581180
 C     5.698916    -0.982747    -1.161832
 H     6.578573    -0.428731    -1.528084
 H     6.038640    -1.559933    -0.282794
 C     5.189555    -1.943843    -2.229366
 H     5.974509    -2.668977    -2.498731
 H     4.964530    -1.373753    -3.149232
 C     3.928107    -2.663737    -1.767083
 H     4.174537    -3.330779    -0.921424
 H     3.537928    -3.311986    -2.568260
 C     2.850424    -1.682255    -1.322637
 H     2.526108    -1.079772    -2.189989
 H     1.952224    -2.204654    -0.953997
 H     3.264996     2.164639    -0.252569
 C     1.496507     3.005354     0.615299
 H     1.945657     3.031877     1.619049
 H     0.444767     2.720477     0.771861
 C     1.561200     4.382834    -0.035325
 H     1.000744     5.109510     0.575691
 H     2.610173     4.731162    -0.045092
 C     1.031136     4.362242    -1.464220
 H     1.114011     5.362538    -1.918921
 H    -0.046171     4.115592    -1.451830
 C     1.768936     3.329066    -2.306909
 H     2.829165     3.627501    -2.401678
 H     1.359665     3.302327    -3.329680
 C     1.681868     1.940528    -1.681879
 H     0.635814     1.598347    -1.709775
 H     2.254240     1.217913    -2.285917
 C    -0.587736    -0.500365    -3.025516
 H     0.184657    -1.064931    -2.474287
 H    -1.309034    -1.220910    -3.451192
 H    -0.116965     0.050080    -3.853614
 H    -2.610594    -2.021438    -1.075649
 C    -4.004623    -0.661545    -1.926101
 H    -3.457200    -0.503634    -2.867016
 H    -4.502145     0.293083    -1.697222
 C    -5.064629    -1.748392    -2.090869
 H    -5.769757    -1.470358    -2.891245
 H    -4.575539    -2.683866    -2.418123
 C    -5.814908    -2.003100    -0.787009
 H    -6.546097    -2.817351    -0.917609
 H    -6.399201    -1.101203    -0.527315
 C    -4.860750    -2.324324     0.359008
 H    -4.360245    -3.289976     0.166732
 H    -5.418731    -2.445335     1.301650
 C    -3.793806    -1.245560     0.516034
 H    -4.276185    -0.296457     0.809814
 H    -3.092824    -1.506790     1.325205
 H    -1.086118     2.235926    -0.291219
 C    -2.020319     1.697742     1.556470
 H    -1.113892     1.225882     1.974386
 H    -2.868283     1.091230     1.916351
 C    -2.175547     3.130170     2.058732
 H    -2.260947     3.135788     3.157203
 H    -1.259783     3.699793     1.817786
 C    -3.374969     3.826609     1.424585
 H    -3.439649     4.870929     1.770853
 H    -4.302889     3.330002     1.762489
 C    -3.309439     3.771800    -0.097828
 H    -2.436565     4.352800    -0.448130
 H    -4.197896     4.251097    -0.540126
 C    -3.187060     2.334590    -0.597005
 H    -4.101593     1.785345    -0.316813
 H    -3.114047     2.304711    -1.694596
