  88
scf done:    -3068.686377
 C     0.100079    -0.249985    -3.293056
 H     0.824557    -0.722373    -3.974359
 H    -0.877254    -0.701823    -3.524535
 C     0.061987     1.250770    -3.565155
 H     1.024358     1.736641    -3.334615
 H    -0.159450     1.467450    -4.626129
 H    -0.709693     1.764624    -2.966365
Ir     0.600263    -0.596391    -1.244066
 O    -1.747821     1.611734    -0.224022
 O    -2.603951    -0.174741    -1.849765
 O    -2.199407    -0.657708     0.611526
 O     0.437865    -1.348699     2.040727
 O     2.795078    -0.811626     1.371308
 O     1.078230     1.002001     1.600168
 P     1.228297    -0.517197     0.921310
 P    -1.490027     0.091536    -0.670521
 C     1.924628    -1.770631    -1.893073
 O     2.603828    -2.582364    -2.333567
 C    -2.617652     2.143610     0.786781
 H    -3.449296     2.648217     0.269016
 H    -3.030885     1.317079     1.380167
 C    -1.827152     3.099256     1.649835
 H    -2.455357     3.380873     2.512923
 H    -0.963189     2.549109     2.058106
 C    -1.352867     4.347178     0.917613
 H    -2.229993     4.952858     0.627961
 H    -0.868137     4.043615    -0.023932
 C    -0.385733     5.184543     1.737159
 H    -0.835788     5.502140     2.691891
 H     0.526136     4.612668     1.972909
 H    -0.076342     6.091468     1.196398
 C    -3.899329     0.274677    -1.738521
 C    -4.238093     1.507220    -2.295168
 H    -3.467180     2.091517    -2.800330
 C    -4.858731    -0.503797    -1.092929
 H    -4.575010    -1.470920    -0.674359
 C    -5.546622     1.972206    -2.199878
 H    -5.843564     2.931333    -2.627660
 C    -6.168711    -0.041569    -0.996668
 H    -6.943166    -0.628385    -0.499782
 C    -6.495275     1.191908    -1.547960
 F    -7.747213     1.635728    -1.453141
 C    -2.271292    -2.007822     0.833087
 C    -1.941617    -2.959104    -0.132379
 H    -1.585534    -2.648922    -1.116764
 C    -2.719598    -2.404741     2.092296
 H    -2.974076    -1.639260     2.826057
 C    -2.042383    -4.314269     0.176786
 H    -1.781620    -5.077838    -0.557934
 C    -2.825408    -3.756928     2.399345
 H    -3.172534    -4.092113     3.378328
 C    -2.479054    -4.698959     1.436832
 F    -2.574650    -5.996035     1.730387
 C     0.810563    -1.551061     3.405587
 H     0.205117    -2.412669     3.725400
 H     1.872310    -1.839392     3.447286
 C     0.541800    -0.347593     4.286881
 H     0.800995    -0.635951     5.321076
 H     1.228323     0.466422     4.007871
 C    -0.892087     0.157582     4.225181
 H    -1.571574    -0.630820     4.595014
 H    -1.158809     0.320715     3.168833
 C    -1.104549     1.437574     5.015304
 H    -0.858367     1.301628     6.080800
 H    -0.466757     2.249012     4.629657
 H    -2.148371     1.781886     4.956872
 C     3.814895    -1.071037     0.492091
 C     4.254694    -0.096673    -0.405128
 H     3.777286     0.884499    -0.417640
 C     4.415240    -2.328231     0.522877
 H     4.047191    -3.075026     1.228402
 C     5.294778    -0.387731    -1.283273
 H     5.653107     0.351972    -2.000933
 C     5.458595    -2.620267    -0.349757
 H     5.941852    -3.598580    -0.353481
 C     5.881742    -1.646469    -1.247065
 F     6.874354    -1.926419    -2.089179
 C     1.810216     2.043397     1.088490
 C     1.510353     2.581833    -0.164245
 H     0.678765     2.169632    -0.737637
 C     2.862998     2.558852     1.844221
 H     3.089606     2.110757     2.812731
 C     2.266857     3.638738    -0.663356
 H     2.052130     4.075556    -1.640188
 C     3.614800     3.623832     1.353893
 H     4.442558     4.047823     1.924785
 C     3.308223     4.148783     0.103365
 F     4.029171     5.163639    -0.369804
