  78
scf done:    -2292.543449
 C     0.269248    -2.826617     0.814624
 H     0.704202    -3.632998     0.200183
 H     1.037014    -2.597677     1.572762
 C    -0.984053    -3.351177     1.509633
 H    -1.724744    -3.725515     0.784451
 H    -0.754198    -4.184889     2.198846
 H    -1.490023    -2.571930     2.102283
Ir    -0.251195    -1.101367    -0.328468
 O     1.101135     1.476242     1.328756
 C     2.862237    -0.621147     1.479935
 C     2.480534     0.855361    -0.989652
 O    -0.361327     1.740721    -2.175309
 C    -2.795833     0.510937    -2.179049
 C    -1.813533     2.018981     0.117514
 P    -1.275997     0.786888    -1.156278
 P     1.539938     0.142819     0.435819
 C    -0.980818    -2.242246    -1.602634
 O    -1.264768    -2.914116    -2.497576
 C     1.857578     2.141049     2.315935
 H     1.915153     1.543524     3.241034
 H     2.874081     2.394671     1.977217
 H     1.329261     3.077450     2.543836
 H     2.334522    -1.174769     2.275817
 H     3.419291     0.189879     1.970419
 C     3.838599    -1.517837     0.765150
 C     5.192482    -1.474958     1.123417
 H     5.515825    -0.788557     1.911473
 C     3.447172    -2.400540    -0.249623
 H     2.397847    -2.442076    -0.553363
 C     6.129606    -2.290545     0.492953
 H     7.179689    -2.240890     0.791240
 C     4.384817    -3.212897    -0.884672
 H     4.057333    -3.890667    -1.676641
 C     5.727939    -3.163657    -0.516650
 H     6.460452    -3.802005    -1.016189
 H     1.706899     1.128865    -1.720197
 H     3.065997     0.023652    -1.408582
 C     3.334088     2.029442    -0.630401
 C     4.668850     1.874730    -0.235193
 H     5.117522     0.878020    -0.244911
 C     2.781166     3.317156    -0.632206
 H     1.741880     3.444629    -0.943352
 C     5.422363     2.975047     0.170501
 H     6.462635     2.836035     0.475369
 C     3.532991     4.417218    -0.228511
 H     3.084467     5.413828    -0.233721
 C     4.855547     4.249188     0.182508
 H     5.446240     5.111174     0.501444
 C    -0.737688     3.019257    -2.620915
 H    -1.752543     3.037394    -3.054948
 H    -0.693516     3.766369    -1.810151
 H    -0.026801     3.315669    -3.405328
 H    -2.535378    -0.305144    -2.872418
 H    -2.972604     1.408365    -2.790686
 C    -4.039061     0.187407    -1.396261
 C    -5.172996     0.996556    -1.525042
 H    -5.145414     1.853897    -2.204177
 C    -4.097012    -0.908297    -0.523692
 H    -3.216684    -1.541711    -0.391261
 C    -6.336091     0.723094    -0.806664
 H    -7.211942     1.365532    -0.927051
 C    -5.253242    -1.176311     0.201555
 H    -5.270273    -2.025193     0.888634
 C    -6.378524    -0.364271     0.062056
 H    -7.285486    -0.578209     0.632461
 H    -2.407002     2.809033    -0.367758
 H    -0.862068     2.453466     0.466970
 C    -2.570868     1.436467     1.278372
 C    -1.980465     0.482599     2.118166
 H    -0.946180     0.177734     1.934117
 C    -3.882402     1.839232     1.546686
 H    -4.360016     2.578919     0.899855
 C    -2.693876    -0.069681     3.178657
 H    -2.217263    -0.817372     3.817354
 C    -4.596150     1.291189     2.609570
 H    -5.624641     1.611640     2.791056
 C    -4.006577     0.329250     3.427043
 H    -4.567156    -0.107152     4.257179
