  84
scf done:    -4209.001215
 C     0.607278     0.818914    -3.137635
 H     0.656209     1.797479    -3.643118
 H     1.663515     0.526433    -3.007372
 C    -0.104625    -0.191027    -4.031171
 H    -1.139779     0.117465    -4.249283
 H     0.407136    -0.319063    -5.003396
 H    -0.162101    -1.188606    -3.564632
Ir    -0.472011     0.963015    -1.283278
 O     1.180426    -0.253013     1.316491
 C     1.535730    -1.941707    -0.774660
 C     2.913821     0.579645    -0.621547
 O    -1.617013     1.528985     1.952762
 C    -3.618296     0.911775     0.244820
 C    -1.831193    -0.998185     1.229100
 P    -1.821714     0.690829     0.540536
 P     1.286439    -0.191803    -0.326004
 C    -1.431048     2.395982    -1.999227
 O    -1.904257     3.375920    -2.376531
 C     2.220618    -0.716344     2.164723
 H     1.739646    -1.351209     2.928129
 H     2.919942    -1.364982     1.609313
 C     2.959136     0.434612     2.812877
 H     3.330631     1.108683     2.024239
 H     2.242408     1.023187     3.409259
 C     4.120764    -0.020953     3.682610
 H     4.819455    -0.618095     3.069788
 H     3.751895    -0.703418     4.468981
 C     4.868254     1.140503     4.317539
 H     5.276636     1.815135     3.548238
 H     4.203051     1.739901     4.959432
 H     5.707585     0.793515     4.938521
 C     1.049855    -2.939271     0.077517
 H     0.603471    -2.665248     1.034741
 C     2.084040    -2.309758    -2.010978
 H     2.461997    -1.546393    -2.694970
 C     1.114278    -4.281404    -0.283155
 H     0.727031    -5.053770     0.383893
 C     2.152412    -3.648195    -2.383098
 H     2.578659    -3.939793    -3.344138
 C     1.666307    -4.627630    -1.515188
Cl     1.748787    -6.292302    -1.977438
 C     4.118785    -0.125859    -0.519524
 H     4.112757    -1.209964    -0.382966
 C     2.948968     1.962755    -0.837443
 H     2.002280     2.499795    -0.949854
 C     5.338690     0.539941    -0.595041
 H     6.281113    -0.003519    -0.512167
 C     4.160600     2.639473    -0.914763
 H     4.192073     3.717333    -1.080831
 C     5.350484     1.922473    -0.780793
Cl     6.862300     2.756732    -0.859581
 C    -1.658350     2.951599     1.898766
 H    -1.744242     3.291413     0.850253
 H    -2.571016     3.280575     2.423444
 C    -0.425552     3.552935     2.535699
 H    -0.605587     4.635185     2.663285
 H    -0.316134     3.136058     3.552632
 C     0.846621     3.325836     1.733818
 H     0.702585     3.737813     0.719901
 H     0.983706     2.242477     1.594120
 C     2.081687     3.938044     2.371451
 H     1.982920     5.030637     2.476830
 H     2.260696     3.527447     3.378392
 H     2.983897     3.740961     1.772131
 C    -4.143695     0.832398    -1.047234
 H    -3.467599     0.678496    -1.893151
 C    -4.486821     1.108443     1.325595
 H    -4.080639     1.157747     2.339072
 C    -5.514240     0.948605    -1.265801
 H    -5.929377     0.887569    -2.272930
 C    -5.855307     1.238078     1.120318
 H    -6.537896     1.398012     1.956551
 C    -6.360939     1.155533    -0.178562
Cl    -8.064296     1.313287    -0.439745
 C    -1.417624    -1.282718     2.532619
 H    -1.117356    -0.462840     3.186709
 C    -2.217611    -2.044907     0.384848
 H    -2.535140    -1.831026    -0.639689
 C    -1.370555    -2.600639     2.982579
 H    -1.037549    -2.836343     3.994920
 C    -2.185472    -3.363057     0.826458
 H    -2.474644    -4.183098     0.167815
 C    -1.746290    -3.632265     2.121884
Cl    -1.628894    -5.277740     2.655361
