  54
scf done:    -1826.958227
 C     1.511140    -2.460065    -0.377263
 H     1.216560    -3.367932    -0.926262
 H     2.338363    -2.008477    -0.943899
 C     1.969660    -2.840514     1.025784
 H     1.165702    -3.317589     1.609659
 H     2.814684    -3.554263     1.002531
 H     2.310159    -1.965614     1.604897
Ir    -0.118080    -1.100147    -0.141307
 O     2.914867     0.249284    -0.438849
 O     0.949584     1.823082    -0.891790
 O     1.825291     1.371624     1.447942
 O    -2.083873     1.733444     0.104638
 O    -3.415558    -0.321375     0.094208
 O    -1.993826     0.305323     2.120645
 P    -1.895199     0.167336     0.496050
 P     1.417040     0.582211     0.063168
 C    -1.101422    -2.223208    -1.255334
 O    -1.652197    -2.800474    -2.086831
 C     4.162024     0.767789     0.049704
 H     4.001216     1.795341     0.414551
 C     5.111008     0.782116    -1.129310
 H     4.717310     1.404941    -1.945692
 H     5.250963    -0.238252    -1.516512
 H     6.091239     1.180674    -0.828801
 C     4.653288    -0.089459     1.197668
 H     3.937163    -0.060082     2.029760
 H     4.773222    -1.133393     0.871383
 H     5.624328     0.278752     1.561821
 C     1.783213     2.933876    -1.135079
 H     2.119334     3.401813    -0.195415
 H     2.663926     2.646466    -1.731463
 H     1.194574     3.664955    -1.705895
 C     0.807975     1.857506     2.303300
 H     0.105350     2.509428     1.757922
 H     0.234846     1.032624     2.751915
 H     1.301802     2.438593     3.093812
 C    -2.626468     2.215905    -1.131826
 H    -3.715367     2.035647    -1.095440
 C    -2.047178     1.504483    -2.339971
 H    -2.313333     0.437778    -2.340749
 H    -0.951010     1.583549    -2.343444
 H    -2.451063     1.952006    -3.260528
 C    -2.359989     3.705423    -1.143204
 H    -2.770254     4.178971    -0.239567
 H    -1.275675     3.890737    -1.170291
 H    -2.820824     4.174577    -2.024749
 C    -3.849422    -1.628732     0.398338
 H    -3.001624    -2.320456     0.537199
 H    -4.452180    -1.625323     1.321202
 H    -4.466058    -1.994686    -0.434592
 C    -3.002800     1.089367     2.727923
 H    -2.747417     2.159370     2.682770
 H    -3.976292     0.940343     2.234606
 H    -3.075596     0.773462     3.777515
