  50
scf done:    -1526.168835
 C    -1.072254    -2.589263    -0.279272
 H    -0.747399    -3.456114     0.318367
 H    -2.128055    -2.426941    -0.003409
 C    -0.993428    -2.924389    -1.765958
 H     0.039542    -3.139944    -2.084283
 H    -1.601766    -3.812759    -2.021019
 H    -1.364797    -2.091376    -2.383980
Ir     0.178435    -0.872405     0.045186
 O    -2.713678    -0.079316    -1.411267
 C    -2.867306     0.004734     1.332597
 C    -1.740476     2.206386    -0.199325
 O     1.436286     2.238024     0.893440
 C     3.404173     0.526813     0.143197
 C     1.596224     1.796683    -1.704918
 P     1.617849     0.901980    -0.103900
 P    -1.788896     0.360238    -0.113265
 C     1.421815    -1.982332     0.865434
 O     2.124886    -2.637070     1.504966
 C    -3.987014     0.433802    -1.700692
 H    -4.676321     0.367344    -0.841152
 H    -3.941736     1.484901    -2.035788
 H    -4.404433    -0.168474    -2.520164
 H    -3.151962    -1.052878     1.218154
 C    -2.162372     0.220905     2.663652
 H    -1.861010     1.270570     2.806949
 H    -1.252839    -0.397431     2.712107
 H    -3.790152     0.602327     1.266705
 H    -2.819875    -0.053341     3.502307
 H    -1.603180     2.426652    -1.272262
 C    -2.897470     3.010656     0.376838
 H    -2.996499     2.859371     1.461776
 H    -3.864660     2.759399    -0.081590
 H    -0.792559     2.495003     0.282548
 H    -2.728488     4.086489     0.215010
 C     1.328096     2.011733     2.278487
 H     0.712811     1.119704     2.491428
 H     2.319706     1.872149     2.744143
 H     0.855680     2.895705     2.731909
 H     3.480464     0.056645     1.137341
 C     3.980447    -0.395829    -0.920355
 H     4.017433     0.092405    -1.906382
 H     3.377895    -1.311300    -1.024291
 H     3.950877     1.482258     0.195587
 H     5.006379    -0.698460    -0.662439
 H     0.551416     2.106856    -1.857063
 C     2.541372     2.980566    -1.830222
 H     3.595931     2.668902    -1.787107
 H     2.370627     3.702307    -1.018748
 H     1.789680     1.027088    -2.470538
 H     2.392664     3.498957    -2.789865
