  62
scf done:    -1683.314917
 C    -0.366885    -3.192740     0.002423
 H     0.346626    -3.913907     0.432914
 H    -1.237998    -3.238429     0.681224
 C    -0.756460    -3.664138    -1.395960
 H     0.119879    -3.704087    -2.062029
 H    -1.205095    -4.675641    -1.390443
 H    -1.484318    -2.993087    -1.882258
Ir     0.472869    -1.219288    -0.109635
 O    -1.942851     1.058329    -0.792839
 C    -3.161313    -1.333925    -0.218736
 C    -1.876981     0.275405     1.847554
 O     1.036731     2.100826     0.563061
 C     3.222630     0.925526    -0.611665
 C     0.860174     1.682883    -2.053190
 P     1.381893     0.855037    -0.504983
 P    -1.675857    -0.297681     0.115208
 C     2.097015    -1.971443     0.360025
 O     3.082099    -2.403597     0.780420
 C    -2.903986     2.087506    -0.561030
 H    -3.495542     1.845570     0.338936
 C    -3.831968     2.151169    -1.758050
 H    -4.354919     1.194833    -1.904233
 H    -3.255082     2.365871    -2.670390
 H    -4.585034     2.943129    -1.628683
 C    -2.159208     3.386666    -0.318798
 H    -1.425754     3.266894     0.490165
 H    -1.606907     3.685224    -1.223043
 H    -2.859035     4.195175    -0.058757
 H    -2.885108    -2.353889     0.089948
 C    -4.490814    -0.933234     0.402532
 H    -4.825342     0.064260     0.082682
 H    -4.446873    -0.935657     1.502005
 H    -3.227871    -1.366309    -1.318574
 H    -5.276814    -1.646542     0.110099
 H    -2.871596     0.727131     1.988054
 C    -1.626802    -0.829641     2.863706
 H    -0.633306    -1.276091     2.705663
 H    -2.369355    -1.638690     2.781187
 H    -1.131921     1.080135     1.946016
 H    -1.679309    -0.434526     3.889625
 C     1.774204     2.342854     1.753918
 H     2.835066     2.506029     1.484776
 C     1.703289     1.189243     2.740182
 H     2.009244     0.238890     2.279373
 H     0.678083     1.053263     3.114181
 H     2.359268     1.387923     3.601116
 C     1.231805     3.633208     2.335072
 H     1.296118     4.445712     1.597235
 H     0.175154     3.509437     2.619798
 H     1.798783     3.925699     3.231288
 H     3.616041     0.492839     0.322180
 C     3.763178     0.158675    -1.810375
 H     3.507996     0.655022    -2.758820
 H     3.355475    -0.863260    -1.848761
 H     3.540081     1.980730    -0.639892
 H     4.859478     0.079998    -1.761092
 H    -0.237760     1.685483    -2.003218
 C     1.418930     3.073876    -2.296184
 H     2.511204     3.067556    -2.435215
 H     1.192313     3.735344    -1.447203
 H     1.125577     0.978261    -2.858926
 H     0.978401     3.518737    -3.202067
