  96
scf done:    -2528.209204
 C     1.292852     2.859263    -1.244346
 H     1.165793     3.897876    -0.897926
 H     2.329968     2.609043    -0.973347
 C     1.120587     2.797978    -2.758161
 H     0.117697     3.136822    -3.064142
 H     1.853471     3.437406    -3.286036
 H     1.247541     1.776016    -3.151031
Ir    -0.156640     1.563120    -0.330896
 O     1.110099    -1.416628     0.343933
 C     2.492171    -0.294209    -1.721759
 C     2.811023     0.593306     1.172735
 O    -2.036015    -0.034289     2.000200
 C    -3.541835     0.733022    -0.169009
 C    -1.966875    -1.611388    -0.115992
 P    -1.864694     0.158388     0.367894
 P     1.622240     0.073466    -0.137496
 C    -1.153392     3.099612     0.009668
 O    -1.656294     4.077698     0.353268
 C     1.894136    -2.501500     0.806270
 H     2.749515    -2.673288     0.131902
 H     2.286723    -2.263147     1.809717
 C     1.010862    -3.730795     0.831439
 H     1.490373    -4.505646     1.453115
 H     0.075072    -3.450277     1.336427
 C     0.750543    -4.256105    -0.576608
 H     1.652378    -4.792980    -0.917218
 H     0.644358    -3.395333    -1.251999
 C    -0.464877    -5.149419    -0.779174
 H    -0.514046    -5.930758     0.000763
 H    -2.050622    -4.637195     1.310087
 H    -0.330010    -5.688309    -1.732486
 C     1.768045    -1.215112    -2.500631
 H     0.858175    -1.652626    -2.085952
 C     3.636449     0.320557    -2.270853
 C     4.478990     1.363890    -1.591174
 H     5.538307     1.063716    -1.594581
 H     4.183137     1.562217    -0.557183
 H     4.408906     2.314953    -2.141144
 C     2.168961    -1.566234    -3.781515
 H     1.584677    -2.287924    -4.356851
 C     4.023573    -0.054011    -3.567466
 H     4.914347     0.414488    -3.995749
 C     3.314485    -0.981643    -4.318753
 H     3.649971    -1.240439    -5.325866
 C     2.327858     1.645536     1.969522
 H     1.379003     2.106754     1.668738
 C     4.052731     0.000010     1.495617
 C     4.749430    -1.055308     0.681683
 H     5.781126    -0.737283     0.468268
 H     4.260929    -1.255807    -0.276949
 H     4.815467    -2.002620     1.238668
 C     3.016978     2.093277     3.088928
 H     2.614577     2.914795     3.685538
 C     4.723064     0.459641     2.638545
 H     5.682664     0.002194     2.896202
 C     4.219295     1.481554     3.434741
 H     4.776243     1.810359     4.315612
 C    -1.429529     0.845818     2.931312
 H    -0.636856     1.420367     2.420561
 H    -2.189378     1.563071     3.287713
 C    -0.862072     0.043640     4.083176
 H    -0.492936     0.753648     4.844406
 H    -1.681165    -0.522837     4.561773
 C     0.252234    -0.906214     3.668011
 H     1.084157    -0.319153     3.246526
 H    -0.112228    -1.534667     2.840576
 C     0.761851    -1.776603     4.803446
 H     1.167169    -1.167451     5.627758
 H    -0.041743    -2.403699     5.223166
 H     1.565414    -2.449987     4.466433
 C    -3.563254     1.598968    -1.271101
 H    -2.609992     1.899153    -1.714963
 C    -4.767931     0.338056     0.418562
 C    -4.877858    -0.595404     1.587958
 H    -4.339914    -0.213755     2.465219
 H    -4.430790    -1.573085     1.355659
 H    -5.932141    -0.752180     1.853765
 C    -4.752914     2.081677    -1.806443
 H    -4.731570     2.755089    -2.666161
 C    -5.952868     0.848244    -0.128575
 H    -6.902440     0.554674     0.327492
 C    -5.958787     1.705271    -1.224845
 H    -6.906814     2.078422    -1.620130
 C    -2.157670    -2.547268     0.832985
 H    -2.208890    -2.241085     1.879987
 C    -1.878676    -2.009510    -1.539726
 C    -1.832174    -0.959004    -2.609171
 H    -1.121306    -0.151801    -2.352690
 H    -2.814665    -0.478888    -2.737232
 H    -1.533776    -1.391139    -3.574435
 C    -2.408077    -3.982194     0.498426
 H    -3.507780    -4.113063     0.488782
 C    -1.824923    -3.321052    -1.851395
 H    -1.710351    -3.601388    -2.904894
 C    -1.838372    -4.443072    -0.850805
 H    -2.526192    -5.215214    -1.235199
