 100
scf done:    -2829.067476
 C     1.691854     3.421023    -1.397541
 H     1.495706     4.466955    -1.112924
 H     2.678428     3.176039    -0.975126
 C     1.720047     3.309872    -2.919846
 H     0.757079     3.598212    -3.370585
 H     2.493250     3.964263    -3.364015
 H     1.931364     2.283613    -3.261714
Ir     0.209601     2.091285    -0.610618
 O     1.824347    -0.586218    -1.859496
 O     3.306791     0.915370    -0.375334
 O     1.619951    -0.728166     0.589251
 O    -1.659664     0.152603     1.502653
 O    -2.903647     1.247553    -0.434616
 O    -1.353286    -0.808799    -0.754356
 P    -1.418778     0.655050    -0.033359
 P     1.763413     0.407980    -0.604378
 C    -0.855314     3.609351    -0.290922
 O    -1.468770     4.542498    -0.033843
 C     2.271591    -1.949873    -1.870266
 H     2.851853    -2.065092    -2.798688
 H     2.953271    -2.132750    -1.026596
 C     1.089896    -2.887779    -1.827399
 H     0.509354    -2.667503    -0.920291
 H     0.424901    -2.666573    -2.678910
 C     1.488905    -4.355041    -1.834730
 H     2.158066    -4.553921    -0.978339
 H     2.084063    -4.577960    -2.738342
 C     0.284356    -5.280490    -1.766546
 H    -0.319292    -5.081755    -0.867031
 H    -0.378692    -5.133593    -2.633715
 H     0.584997    -6.338939    -1.748822
 C     4.405733     0.083357    -0.454629
 C     4.809063    -0.632217     0.670125
 H     4.254654    -0.517071     1.602824
 C     5.101994     0.011829    -1.670122
 C     4.664926     0.822131    -2.851354
 H     3.687426     0.482963    -3.227781
 H     4.543518     1.881770    -2.581359
 H     5.394755     0.749054    -3.668621
 C     5.914832    -1.475496     0.587096
 H     6.231696    -2.040268     1.466745
 C     6.209476    -0.840926    -1.721178
 H     6.769155    -0.915131    -2.657518
 C     6.611751    -1.586267    -0.614080
 H     7.479672    -2.245262    -0.688078
 C     1.708720    -0.511656     1.937678
 C     1.766119     0.763938     2.497980
 H     1.701329     1.643991     1.851452
 C     1.780104    -1.668577     2.731150
 C     1.771918    -3.020098     2.086494
 H     0.876755    -3.167538     1.463676
 H     2.640948    -3.137296     1.418479
 H     1.807235    -3.817208     2.841071
 C     1.895986     0.899758     3.879121
 H     1.948024     1.899607     4.315845
 C     1.900981    -1.497871     4.112615
 H     1.959976    -2.387388     4.745613
 C     1.962645    -0.229675     4.690798
 H     2.067978    -0.126383     5.772819
 C    -1.725201     1.105611     2.557117
 H    -0.888467     1.819269     2.457016
 H    -2.667666     1.676723     2.475378
 C    -1.646685     0.363073     3.869083
 H    -2.501108    -0.332513     3.939069
 H    -0.734709    -0.255905     3.859313
 C    -1.626294     1.292160     5.072855
 H    -2.528441     1.929252     5.066723
 H    -0.768957     1.981474     4.979242
 C    -1.534289     0.543638     6.392277
 H    -2.394648    -0.130708     6.530097
 H    -0.622886    -0.073897     6.430258
 H    -1.510256     1.232612     7.249961
 C    -4.098375     0.586261    -0.573091
 C    -4.546323    -0.357687     0.348893
 H    -3.928394    -0.602225     1.212443
 C    -4.860024     0.936763    -1.699494
 C    -4.340012     1.963533    -2.657456
 H    -5.040112     2.119286    -3.489210
 H    -4.173566     2.927704    -2.152284
 H    -3.363895     1.663049    -3.070538
 C    -5.766771    -0.994932     0.136800
 H    -6.108981    -1.748527     0.849355
 C    -6.085434     0.290036    -1.877988
 H    -6.692103     0.547084    -2.750604
 C    -6.537409    -0.674354    -0.977622
 H    -7.494898    -1.171879    -1.146768
 C    -1.983016    -2.005374    -0.497686
 C    -1.842738    -2.647026     0.731595
 H    -1.277347    -2.157485     1.522975
 C    -2.687281    -2.589074    -1.560130
 C    -2.797975    -1.881546    -2.873257
 H    -3.471937    -1.014070    -2.787828
 H    -1.820975    -1.497423    -3.201999
 H    -3.200469    -2.548257    -3.647692
 C    -2.453253    -3.883334     0.930977
 H    -2.353537    -4.383206     1.897359
 C    -3.281974    -3.832690    -1.330953
 H    -3.840455    -4.302315    -2.145048
 C    -3.179256    -4.476846    -0.099435
 H    -3.657865    -5.447037     0.050697
