  88
scf done:    -2299.281976
 C     1.214798     3.049126    -0.303798
 H     2.238382     2.773086    -0.602481
 H     0.876146     3.758917    -1.079970
 C     1.309382     3.773781     1.034515
 H     2.006136     4.630600     0.986324
 H     0.335783     4.167315     1.366877
 H     1.679186     3.111777     1.832873
Ir    -0.152047     1.369066    -0.326727
 C    -1.739079    -1.660984    -1.551011
 C    -1.343434    -1.347579     1.349410
 C    -3.503179     0.059705    -0.164768
 C     2.654090     0.799119    -2.362354
 C     3.177121     0.587353     0.510113
 C     1.999274    -1.683934    -1.005610
 P     1.904540     0.152356    -0.753831
 P    -1.708106    -0.398086    -0.176582
 C    -1.399134     2.698057    -0.077888
 O    -2.110036     3.591368     0.088728
 H    -0.736105    -2.105092    -1.494246
 C    -2.771523    -2.771759    -1.437863
 H    -2.669673    -3.457690    -2.294850
 H    -2.649677    -3.369823    -0.523828
 H    -3.796454    -2.370449    -1.454616
 C    -1.847409    -0.935913    -2.887846
 H    -1.146683    -0.088729    -2.943979
 H    -1.633420    -1.632958    -3.714569
 H    -2.862651    -0.540000    -3.045527
 C    -0.678146    -2.576689     1.253002
 H    -0.461944    -3.010439     0.275695
 C    -1.557744    -0.772909     2.625127
 C    -2.144942     0.595478     2.801913
 H    -3.143527     0.693149     2.351274
 H    -1.510299     1.345166     2.300955
 H    -2.219382     0.855745     3.866245
 C    -0.257470    -3.263974     2.389814
 H     0.265949    -4.216925     2.282650
 C    -1.152722    -1.495305     3.751901
 H    -1.328045    -1.061166     4.740110
 C    -0.511043    -2.727883     3.648331
 H    -0.197615    -3.258313     4.550569
 C    -3.811542     1.106289    -1.047608
 H    -2.994844     1.592079    -1.585421
 C    -4.560594    -0.595997     0.512000
 C    -4.398464    -1.751693     1.459897
 H    -4.112956    -1.413153     2.468082
 H    -3.627460    -2.461231     1.143186
 H    -5.349298    -2.294787     1.552935
 C    -5.115956     1.539473    -1.256644
 H    -5.312831     2.360757    -1.948982
 C    -5.866171    -0.129728     0.296824
 H    -6.684922    -0.625495     0.825718
 C    -6.153077     0.921801    -0.566539
 H    -7.186336     1.249631    -0.703582
 H     3.163198     1.705726    -1.999344
 C     3.682514    -0.106952    -3.032619
 H     4.249475     0.471651    -3.779707
 H     4.399654    -0.552614    -2.329120
 H     3.199720    -0.941592    -3.559999
 C     1.588941     1.265362    -3.350282
 H     0.810897     1.857038    -2.842296
 H     2.055788     1.881570    -4.135259
 H     1.095229     0.420631    -3.855148
 C     4.491443     0.878857     0.120623
 H     4.777745     0.828020    -0.928736
 C     2.832239     0.673614     1.878379
 C     1.461617     0.368800     2.382163
 H     1.216760    -0.700692     2.299609
 H     0.694349     0.900337     1.773794
 H     1.347249     0.657682     3.435254
 C     5.465867     1.235939     1.047846
 H     6.481564     1.455618     0.711469
 C     3.826942     1.040532     2.793063
 H     3.558388     1.110557     3.850351
 C     5.130681     1.315770     2.395871
 H     5.880860     1.599005     3.138031
 C     1.375651    -2.085682    -2.198727
 H     0.915029    -1.325838    -2.832101
 C     2.591369    -2.675088    -0.188000
 C     3.322342    -2.419522     1.097997
 H     4.167598    -1.730871     0.968258
 H     3.710859    -3.365078     1.499488
 H     2.664332    -1.984093     1.861318
 C     1.308550    -3.414216    -2.601049
 H     0.812691    -3.677146    -3.538203
 C     2.494865    -4.012986    -0.605358
 H     2.944484    -4.780974     0.029608
 C     1.866611    -4.393020    -1.785297
 H     1.822060    -5.447434    -2.067573
