  78
scf done:    -2689.314943
 C     0.066420    -2.560848    -1.826298
 H    -0.218380    -2.822650    -2.857199
 H     1.163964    -2.698439    -1.805696
 C    -0.605361    -3.537093    -0.863106
 H    -1.702666    -3.452833    -0.907072
 H    -0.349878    -4.589705    -1.085357
 H    -0.323379    -3.357014     0.189433
Ir    -0.535322    -0.569032    -1.314444
 O     1.235765     0.685034     1.252504
 C     2.193560    -1.849360     0.685484
 C     2.631770     0.474065    -1.154236
 O    -0.371627     2.713918    -0.775230
 C    -2.949111     2.020148    -1.359863
 C    -1.784338     1.542046     1.258736
 P    -1.393463     1.418189    -0.548953
 P     1.383707    -0.335774    -0.043083
 C    -1.461821    -0.510058    -2.922398
 O    -1.902055    -0.398806    -3.982558
 C     2.148488     0.807390     2.320440
 H     2.022119    -0.018200     3.041474
 H     3.193991     0.842615     1.981422
 H     1.920679     1.751194     2.835460
 H     1.820201    -1.908033     1.719272
 H     1.721687    -2.681271     0.144002
 C     3.684512    -1.995366     0.628821
 C     4.297099    -2.465580    -0.541541
 H     3.677431    -2.739754    -1.400148
 C     4.503967    -1.694866     1.723343
 H     4.054679    -1.351699     2.657286
 C     5.679412    -2.604810    -0.632554
 H     6.159123    -2.972033    -1.541487
 C     5.887570    -1.831387     1.653276
 H     6.528634    -1.599096     2.505418
 C     6.461227    -2.278210     0.469514
 F     7.783616    -2.407756     0.393026
 H     3.172952    -0.333275    -1.668347
 H     2.003080     0.974535    -1.904351
 C     3.559529     1.450635    -0.499502
 C     3.078194     2.718445    -0.144853
 H     2.041267     2.967856    -0.380256
 C     4.888165     1.130015    -0.201286
 H     5.284620     0.151524    -0.479080
 C     3.891529     3.635736     0.512410
 H     3.529229     4.625866     0.795569
 C     5.714944     2.038401     0.455965
 H     6.752389     1.796626     0.693766
 C     5.202054     3.279331     0.811758
 F     5.984734     4.151495     1.446557
 C    -0.583982     3.978620    -0.200539
 H    -1.615199     4.346428    -0.344766
 H    -0.362048     3.977629     0.880155
 H     0.097351     4.686010    -0.695414
 H    -3.016263     3.110534    -1.228400
 H    -2.818640     1.832365    -2.437405
 C    -4.195342     1.370186    -0.828091
 C    -4.383968    -0.018409    -0.893859
 H    -3.617155    -0.647274    -1.352365
 C    -5.186136     2.144148    -0.215676
 H    -5.063696     3.229520    -0.160323
 C    -5.513918    -0.615796    -0.348397
 H    -5.656140    -1.697266    -0.376453
 C    -6.328949     1.562187     0.329677
 H    -7.104561     2.160656     0.810871
 C    -6.470817     0.183674     0.265132
 F    -7.543859    -0.386798     0.812391
 H    -0.787232     1.609023     1.722346
 H    -2.325734     2.480193     1.454712
 C    -2.547726     0.373445     1.817732
 C    -3.768420     0.560202     2.473455
 H    -4.174362     1.568766     2.578281
 C    -2.057598    -0.933668     1.696942
 H    -1.104608    -1.100888     1.185556
 C    -4.494901    -0.517046     2.974314
 H    -5.458581    -0.377575     3.467078
 C    -2.771813    -2.023285     2.183585
 H    -2.399828    -3.043358     2.072369
 C    -3.989034    -1.800028     2.815157
 F    -4.685244    -2.839172     3.277295
