  50
scf done:    -1526.195358
 C     3.123438    -0.751703     0.273090
 H     3.982049    -0.091434     0.474778
 H     3.090983    -1.435830     1.138032
 C     3.396616    -1.536100    -1.008153
 H     3.533576    -0.864498    -1.870540
 H     4.309703    -2.156820    -0.933991
 H     2.567560    -2.214301    -1.276808
Ir     1.304970     0.348625     0.034575
 O    -1.000684    -2.070677    -0.421945
 C     0.967831    -3.046122     1.209992
 C    -0.924201    -1.154594     2.169786
 O    -1.885015     1.420290     0.406178
 C    -0.411386     3.187652    -1.086597
 C    -1.330480     0.720942    -2.175347
 P    -0.599346     1.418828    -0.651531
 P     0.090181    -1.525392     0.701044
 C     2.295322     1.913172     0.164594
 O     2.877400     2.887817     0.368564
 C    -1.886451    -3.168573    -0.212671
 H    -1.756108    -3.561662     0.812776
 C    -1.534183    -4.261425    -1.202314
 H    -0.496708    -4.596463    -1.059786
 H    -1.630515    -3.882588    -2.231149
 H    -2.200115    -5.129682    -1.085524
 C    -3.310280    -2.669100    -0.352967
 H    -3.514527    -1.876742     0.380275
 H    -3.471185    -2.254862    -1.360306
 H    -4.030264    -3.486250    -0.195853
 H     1.609607    -2.805756     2.069039
 H     0.267947    -3.841366     1.504070
 H     1.608646    -3.399164     0.390778
 H    -0.246901    -0.850575     2.980929
 H    -1.569425    -0.301700     1.916777
 H    -1.522786    -2.018037     2.498293
 C    -3.115145     2.099338     0.172496
 H    -3.107916     2.547399    -0.838672
 C    -3.254840     3.209695     1.195916
 H    -2.422319     3.922881     1.113103
 H    -3.240554     2.788354     2.212628
 H    -4.198706     3.758632     1.058004
 C    -4.242668     1.088019     0.234835
 H    -4.106334     0.309484    -0.528707
 H    -4.263213     0.601855     1.222602
 H    -5.216154     1.573416     0.068582
 H    -1.335680     3.645436    -1.468942
 H    -0.062299     3.740479    -0.202937
 H     0.367332     3.258044    -1.860247
 H    -1.537982    -0.340587    -1.980679
 H    -2.246795     1.242232    -2.492067
 H    -0.581136     0.787782    -2.977754
