  82
scf done:    -2593.355267
 C     1.123593     1.732957    -3.071954
 H     0.714892     2.632268    -3.557916
 H     2.061909     2.068743    -2.596823
 C     1.425272     0.664938    -4.119424
 H     0.513831     0.338293    -4.645983
 H     2.127201     1.032978    -4.890540
 H     1.883496    -0.228394    -3.665223
Ir    -0.259486     0.931410    -1.638271
 O     2.811597    -0.434317    -1.233423
 O     2.474853     1.566088     0.135588
 O     1.307273    -0.597662     0.840331
 O    -1.566628     0.175875     1.353024
 O    -3.255034     0.094265    -0.544370
 O    -1.657326    -1.793877    -0.201581
 P    -1.657193    -0.133129    -0.242437
 P     1.601330     0.324873    -0.493776
 C    -1.574701     2.090472    -2.324998
 O    -2.324705     2.888607    -2.662296
 C     4.199291    -0.229431    -1.018036
 H     4.490821     0.786041    -1.321301
 H     4.474030    -0.388132     0.034672
 H     4.720016    -0.964892    -1.644738
 C     1.937725     2.688938     0.718987
 C     2.667347     3.869477     0.603766
 H     3.604662     3.858730     0.044677
 C     0.736027     2.668097     1.424723
 H     0.151748     1.750313     1.514943
 C     2.190263     5.033432     1.196764
 H     2.770397     5.955551     1.101706
 C     0.272029     3.847887     2.003785
 H    -0.676152     3.825553     2.547931
 C     0.980844     5.048709     1.903152
 C     0.451047     6.319515     2.501854
 H     1.261415     6.946493     2.902660
 H    -0.257572     6.115830     3.317436
 H    -0.082306     6.920516     1.746320
 C     2.311351    -1.094132     1.641859
 C     2.782773    -0.342127     2.714648
 H     2.361967     0.647231     2.904523
 C     2.835344    -2.355784     1.371375
 H     2.446548    -2.918016     0.520915
 C     3.791386    -0.865741     3.519737
 H     4.164050    -0.272209     4.359075
 C     3.842868    -2.861933     2.187257
 H     4.255804    -3.851344     1.971328
 C     4.339379    -2.130742     3.274118
 C     5.403780    -2.699296     4.167346
 H     4.958463    -3.276383     4.995172
 H     6.019224    -1.906718     4.617011
 H     6.070438    -3.379892     3.618046
 C    -1.635709    -0.787008     2.389787
 H    -2.578933    -1.352157     2.357943
 H    -0.784191    -1.480655     2.328734
 H    -1.580134    -0.230930     3.335184
 C    -4.241832    -0.356385     0.302102
 C    -4.741635     0.497349     1.282664
 H    -4.326631     1.502780     1.369558
 C    -4.743975    -1.649118     0.170121
 H    -4.332227    -2.303112    -0.599394
 C    -5.746086     0.048156     2.135085
 H    -6.132657     0.721011     2.905660
 C    -5.749231    -2.082032     1.030538
 H    -6.139124    -3.098320     0.925101
 C    -6.269037    -1.246322     2.026688
 C    -7.376518    -1.711651     2.927361
 H    -7.332075    -1.219070     3.909627
 H    -7.336573    -2.798863     3.087884
 H    -8.363428    -1.482074     2.491523
 C    -0.683288    -2.614623    -0.699263
 C    -0.350241    -3.743582     0.045591
 H    -0.861621    -3.921322     0.993261
 C    -0.049754    -2.374609    -1.920440
 H    -0.329204    -1.496792    -2.515188
 C     0.628356    -4.617004    -0.422696
 H     0.883165    -5.498354     0.172485
 C     0.945608    -3.242030    -2.358593
 H     1.451159    -3.025178    -3.303467
 C     1.306396    -4.377900    -1.623470
 C     2.369673    -5.313116    -2.123109
 H     2.016104    -5.893998    -2.990836
 H     2.672421    -6.030350    -1.346934
 H     3.267105    -4.763865    -2.447082
