  90
scf done:    -2449.683609
 C    -0.298212    -0.122450    -3.550924
 H     0.207207    -0.740930    -4.310176
 H    -1.341609    -0.480138    -3.541295
 C    -0.273362     1.338141    -3.986579
 H     0.756602     1.712222    -4.100220
 H    -0.778946     1.483703    -4.959494
 H    -0.784612     1.986075    -3.257659
Ir     0.623831    -0.341938    -1.616226
 O    -2.507419     0.855899    -1.713970
 C    -2.275731    -1.847907    -1.057269
 C    -1.931056     0.405975     0.934269
 O     0.739071    -0.583190     1.724399
 C     2.988802    -1.752743     0.600712
 C     2.686056     1.129685     0.886938
 P     1.723507    -0.377293     0.397013
 P    -1.563308    -0.138885    -0.803914
 C     2.005537    -1.163271    -2.537826
 O     2.767508    -1.799775    -3.126949
 C    -3.887113     0.699511    -1.949182
 H    -4.064801    -0.035753    -2.753248
 H    -4.440117     0.401999    -1.045833
 H    -4.271071     1.673741    -2.282405
 H    -2.732626    -1.801162    -2.057598
 H    -1.375106    -2.467101    -1.174297
 C    -3.220387    -2.439320    -0.057119
 C    -4.602683    -2.375180    -0.262426
 H    -4.982577    -1.894325    -1.166518
 C    -2.725184    -3.094646     1.091163
 C    -1.251011    -3.285516     1.303748
 H    -0.684015    -2.343021     1.267455
 H    -0.823521    -3.936044     0.522294
 H    -1.055189    -3.761743     2.274722
 C    -5.500440    -2.904790     0.659267
 H    -6.575118    -2.835489     0.476769
 C    -3.641088    -3.609921     2.015389
 H    -3.260798    -4.111091     2.909810
 C    -5.016634    -3.513232     1.814328
 H    -5.706899    -3.925997     2.553731
 H    -1.738093    -0.468152     1.569665
 H    -1.129718     1.124797     1.160289
 C    -3.287803     0.985741     1.206144
 C    -4.281529     0.188046     1.784328
 H    -4.045284    -0.843697     2.051972
 C    -3.576405     2.333478     0.898069
 C    -2.525983     3.249650     0.347750
 H    -2.159635     2.905085    -0.630413
 H    -1.650942     3.300799     1.012838
 H    -2.913836     4.271068     0.231036
 C    -5.563328     0.679570     2.014495
 H    -6.321799     0.029748     2.457197
 C    -4.869931     2.810040     1.136740
 H    -5.097590     3.851950     0.894520
 C    -5.863659     1.996352     1.676659
 H    -6.865842     2.397543     1.846649
 C     1.172764    -0.775083     3.044320
 H     1.390433    -1.839317     3.241437
 H     2.071654    -0.187192     3.289840
 H     0.357420    -0.460544     3.712739
 H     2.462228    -2.526613     1.180808
 H     3.122835    -2.169389    -0.406357
 C     4.311735    -1.419808     1.225262
 C     4.524074    -1.633678     2.591987
 H     3.728252    -2.087156     3.187514
 C     5.357416    -0.874687     0.448017
 C     5.212052    -0.679212    -1.033372
 H     4.342249    -0.057120    -1.296172
 H     5.068066    -1.636942    -1.558120
 H     6.104290    -0.198087    -1.456030
 C     5.726896    -1.294437     3.206331
 H     5.864673    -1.474102     4.275098
 C     6.557841    -0.536389     1.080678
 H     7.366112    -0.111061     0.479511
 C     6.748493    -0.732923     2.446423
 H     7.697620    -0.456827     2.911505
 H     3.234198     0.908777     1.815339
 H     3.450073     1.250524     0.105798
 C     1.869568     2.379011     1.042186
 C     1.404348     2.740610     2.312180
 H     1.623297     2.090810     3.163071
 C     1.597087     3.223500    -0.056027
 C     2.053271     2.871130    -1.437365
 H     1.624715     1.895645    -1.753955
 H     3.149932     2.769906    -1.493660
 H     1.744910     3.631756    -2.166426
 C     0.700497     3.923571     2.521257
 H     0.356985     4.186154     3.524411
 C     0.895017     4.411972     0.172819
 H     0.692774     5.071705    -0.675179
 C     0.453753     4.770351     1.444004
 H    -0.090048     5.706599     1.589834
