 110
scf done:    -3208.102144
 C     1.959928    -0.072334    -2.757763
 H     1.754893     0.609466    -3.603339
 H     2.835664     0.343911    -2.234568
 C     2.327300    -1.443209    -3.316776
 H     1.536867    -1.844333    -3.971686
 H     3.257488    -1.421124    -3.917764
 H     2.475320    -2.188125    -2.517528
Ir     0.205389    -0.025394    -1.519573
 O     0.820410     0.581628     1.744917
 C     2.227301    -1.590512     0.645734
 C     3.053287     1.234976     0.344151
 O    -2.779675     0.889529    -1.679904
 C    -2.851613    -1.268718    -0.031071
 C    -2.023630     1.411978     0.933645
 P    -1.844574     0.235638    -0.481895
 P     1.580076     0.118055     0.367652
 C    -0.702278    -0.765838    -2.950117
 O    -1.234982    -1.373280    -3.778431
 C     1.463611     0.886136     2.985201
 H     2.489637     0.489900     2.965483
 C     0.703763     0.195246     4.100136
 H     0.684988    -0.888841     3.934791
 H    -0.331696     0.561477     4.136655
 H     1.182142     0.403832     5.069405
 C     1.497621     2.393934     3.151165
 H     2.072757     2.861366     2.339450
 H     0.473724     2.795581     3.125450
 H     1.963276     2.670478     4.109941
 C     3.397172    -2.059653     0.012652
 O     4.106422    -1.154650    -0.684260
 C     5.231108    -1.544363    -1.415046
 H     5.595559    -0.640368    -1.919264
 H     6.030244    -1.938748    -0.761854
 H     4.979895    -2.302116    -2.175613
 C     1.438601    -2.533682     1.334778
 O     0.289226    -2.090167     1.866618
 C    -0.617811    -3.002531     2.411032
 H    -1.535653    -2.435732     2.590138
 H    -0.248947    -3.432119     3.360293
 H    -0.844852    -3.822590     1.711026
 C     1.839105    -3.874204     1.443037
 H     1.231984    -4.587524     1.998203
 C     3.793546    -3.399000     0.105812
 H     4.701053    -3.743649    -0.387698
 C     3.011753    -4.291868     0.829277
 H     3.319713    -5.337302     0.908107
 C     4.257979     1.013455     1.042194
 O     4.282645    -0.031491     1.892364
 C     5.500320    -0.500930     2.393156
 H     5.278414    -1.441928     2.912799
 H     6.220909    -0.700630     1.581709
 H     5.954807     0.207018     3.108400
 C     2.983718     2.363040    -0.495382
 O     1.803351     2.611443    -1.084827
 C     1.780234     3.233620    -2.344110
 H     0.822351     2.953100    -2.800164
 H     2.596136     2.863503    -2.983944
 H     1.850728     4.332265    -2.256804
 C     4.096187     3.193313    -0.695965
 H     4.025705     4.055094    -1.359355
 C     5.368947     1.841089     0.854592
 H     6.297398     1.656676     1.393748
 C     5.276712     2.918989    -0.021849
 H     6.143912     3.568010    -0.166701
 C    -4.050962     1.520284    -1.671717
 H    -4.314870     1.798825    -0.638776
 C    -5.086088     0.562431    -2.238628
 H    -5.122943    -0.377358    -1.673166
 H    -4.826508     0.312641    -3.278811
 H    -6.088327     1.019181    -2.231525
 C    -3.945903     2.774835    -2.519730
 H    -3.206443     3.463889    -2.096700
 H    -3.627851     2.511874    -3.540166
 H    -4.919355     3.286134    -2.576863
 C    -4.166371    -1.190630     0.478025
 O    -4.608651     0.038383     0.811639
 C    -5.927604     0.222478     1.233132
 H    -6.046080     1.298778     1.414236
 H    -6.652649    -0.096063     0.464055
 H    -6.141347    -0.320589     2.170488
 C    -2.364147    -2.557811    -0.342350
 O    -1.088194    -2.659447    -0.722321
 C    -0.601588    -3.804651    -1.362208
 H     0.416330    -3.551516    -1.685408
 H    -1.211265    -4.061998    -2.244433
 H    -0.552049    -4.671604    -0.679555
 C    -3.180118    -3.696587    -0.222455
 H    -2.791551    -4.676921    -0.495543
 C    -4.973125    -2.322858     0.628712
 H    -5.987338    -2.238754     1.016292
 C    -4.471525    -3.567895     0.260069
 H    -5.103603    -4.453875     0.358616
 C    -2.329219     1.056703     2.260724
 O    -2.475644    -0.252327     2.543342
 C    -3.158059    -0.629266     3.703115
 H    -3.388539    -1.698597     3.599699
 H    -2.546180    -0.484791     4.610992
 H    -4.103891    -0.072770     3.817966
 C    -1.735924     2.770340     0.682242
 O    -1.370177     3.081739    -0.572945
 C    -1.002117     4.396124    -0.871162
 H    -0.773839     4.418036    -1.942633
 H    -0.106511     4.701788    -0.303960
 H    -1.821345     5.109323    -0.671906
 C    -1.842393     3.742752     1.686339
 H    -1.627122     4.788199     1.473679
 C    -2.461444     2.026387     3.263270
 H    -2.719203     1.737360     4.281279
 C    -2.223537     3.361092     2.964797
 H    -2.313757     4.115332     3.750105
