  82
scf done:    -2593.353858
 C    -0.838777    -2.823087    -1.296810
 H    -1.407335    -3.526589    -0.666554
 H    -1.579818    -2.380470    -1.981416
 C     0.215981    -3.567441    -2.107102
 H     0.929410    -4.107357    -1.463088
 H    -0.239517    -4.311236    -2.786454
 H     0.807972    -2.881121    -2.735388
Ir     0.107374    -1.311155    -0.127466
 O    -1.216123     1.232813    -1.974560
 O    -2.942764    -0.335637    -1.203995
 O    -1.799561     1.143247     0.537810
 O     1.024115     1.396642     1.790773
 O     2.924709    -0.082924     1.261354
 O     1.861514     1.275529    -0.639293
 P     1.436537     0.332679     0.653948
 P    -1.446569     0.198832    -0.761671
 C     0.740325    -2.685983     0.991499
 O     0.974869    -3.492182     1.775177
 C    -2.195955     1.949221    -2.712759
 H    -3.075978     1.321830    -2.909519
 H    -2.506123     2.854534    -2.170453
 H    -1.726467     2.234401    -3.663501
 C    -3.657043    -1.304774    -0.545384
 C    -3.433743    -1.617532     0.793199
 H    -2.662142    -1.088312     1.356292
 C    -4.641187    -1.965014    -1.281429
 H    -4.789456    -1.698552    -2.329161
 C    -4.178362    -2.629203     1.412589
 C    -3.892497    -2.987196     2.841715
 H    -2.866737    -3.375363     2.948044
 H    -3.972210    -2.106154     3.497415
 H    -4.586254    -3.753964     3.213206
 C    -5.393119    -2.955420    -0.661010
 H    -6.164697    -3.480903    -1.228756
 C    -5.161422    -3.291858     0.673382
 H    -5.750817    -4.081118     1.146558
 C    -2.549167     2.291661     0.505129
 C    -3.933816     2.234057     0.369057
 H    -4.422011     1.260654     0.290175
 C    -1.886529     3.511332     0.636938
 H    -0.803490     3.509102     0.766999
 C    -4.686358     3.413692     0.330768
 C    -6.181007     3.350274     0.206298
 H    -6.492538     2.571368    -0.505283
 H    -6.643905     3.105401     1.176552
 H    -6.599563     4.310226    -0.127212
 C    -2.632679     4.685102     0.597493
 H    -2.127996     5.649701     0.692361
 C    -4.017650     4.638705     0.436579
 H    -4.591617     5.568261     0.401351
 C     1.871978     2.183063     2.613620
 H     2.779414     1.628602     2.889616
 H     2.154793     3.113877     2.099919
 H     1.298664     2.424708     3.518710
 C     3.615416    -1.173149     0.796695
 C     3.646536    -1.493309    -0.560137
 H     3.124950    -0.855411    -1.277694
 C     4.284097    -1.959580     1.733399
 H     4.231915    -1.689142     2.789135
 C     4.333203    -2.631106    -1.001525
 C     4.311284    -2.998695    -2.456003
 H     3.317809    -3.381585    -2.740963
 H     4.516513    -2.125862    -3.094049
 H     5.051630    -3.776865    -2.687763
 C     4.982231    -3.078858     1.293790
 H     5.508012    -3.704766     2.018652
 C     5.003440    -3.416735    -0.059472
 H     5.546137    -4.306048    -0.389425
 C     2.483206     2.493945    -0.561835
 C     3.834366     2.586051    -0.236464
 H     4.395814     1.670901    -0.038256
 C     1.730162     3.634882    -0.838456
 H     0.680920     3.515602    -1.112952
 C     4.455451     3.837819    -0.153009
 C     5.916024     3.933585     0.180564
 H     6.184712     3.257769     1.006232
 H     6.535288     3.647340    -0.685410
 H     6.198432     4.956252     0.467106
 C     2.344723     4.880293    -0.755282
 H     1.766434     5.783905    -0.963317
 C     3.691952     4.982846    -0.407483
 H     4.162118     5.967286    -0.340425
