 108
scf done:    -2685.382341
 C    -1.572683    -4.194874    -0.607690
 H    -1.256898    -5.187706    -0.248774
 H    -2.553468    -4.037629    -0.120837
 C    -1.717538    -4.253362    -2.125628
 H    -0.755883    -4.490416    -2.607573
 H    -2.440062    -5.025665    -2.449976
 H    -2.053476    -3.296312    -2.559950
Ir    -0.157740    -2.678367    -0.090210
 O    -1.409415     0.279782    -1.330507
 C    -3.474201    -1.514845    -0.898324
 C    -1.979223    -0.236992     1.355997
 O     1.297187     0.142349     1.085962
 C     3.157260    -1.937325     0.614492
 C     1.961626    -0.315816    -1.538641
 P     1.554701    -1.147375     0.075550
 P    -1.772399    -0.996815    -0.328976
 C     0.746487    -3.999268     0.836543
 O     1.226917    -4.783357     1.534447
 C    -2.408205     1.178367    -1.796782
 H    -2.980735     0.691868    -2.607959
 H    -3.114260     1.419012    -0.986436
 C    -1.790722     2.453184    -2.319214
 H    -1.238506     2.939395    -1.501487
 H    -1.056025     2.214496    -3.106679
 C    -2.844861     3.416892    -2.845672
 H    -3.582937     3.610385    -2.046771
 H    -3.405706     2.941744    -3.670373
 C    -2.253136     4.734182    -3.319704
 H    -1.726076     5.247357    -2.499390
 H    -1.523646     4.576054    -4.129848
 H    -3.029233     5.417255    -3.696605
 H    -3.508123    -1.285971    -1.973178
 H    -3.443713    -2.610133    -0.823113
 C    -4.693535    -1.006801    -0.191013
 C    -5.100744    -1.601753     1.012214
 H    -4.530994    -2.442042     1.419007
 C    -5.465528     0.036512    -0.708427
 H    -5.176392     0.494047    -1.657901
 C    -6.227995    -1.137017     1.682071
 H    -6.534395    -1.606353     2.619972
 C    -6.602569     0.517465    -0.050006
 C    -7.397313     1.644006    -0.643788
 H    -6.746522     2.491288    -0.910179
 H    -7.908943     1.324996    -1.566282
 H    -8.163482     2.010155     0.053702
 C    -6.971592    -0.078788     1.159644
 H    -7.855043     0.282796     1.692726
 H    -2.713969    -0.858106     1.888245
 H    -0.997058    -0.411624     1.816218
 C    -2.326619     1.221306     1.416759
 C    -1.324528     2.174386     1.202295
 H    -0.304645     1.835835     1.012178
 C    -3.630608     1.659890     1.677230
 H    -4.415189     0.923378     1.864254
 C    -1.635892     3.532162     1.216533
 H    -0.846997     4.269469     1.043833
 C    -3.957517     3.018779     1.693730
 C    -5.360237     3.469394     1.985375
 H    -6.047201     2.614565     2.049614
 H    -5.410895     4.017487     2.940202
 H    -5.733829     4.149936     1.204064
 C    -2.942845     3.953443     1.446960
 H    -3.179681     5.021344     1.451785
 C     2.006436     0.583109     2.223482
 H     1.269480     0.698377     3.037552
 H     2.721205    -0.186051     2.563097
 C     2.713754     1.896709     1.966290
 H     3.380460     1.782525     1.096053
 H     1.963984     2.647057     1.668766
 C     3.499652     2.400674     3.166585
 H     4.255128     1.648676     3.460097
 H     2.828137     2.500048     4.037915
 C     4.186660     3.729215     2.894231
 H     4.875266     3.648536     2.038164
 H     3.451708     4.510737     2.644677
 H     4.765651     4.077014     3.763021
 H     3.079092    -2.078610     1.704493
 H     3.052830    -2.944696     0.186331
 C     4.484818    -1.370938     0.212640
 C     5.104698    -1.834381    -0.956135
 H     4.616607    -2.608304    -1.554911
 C     5.152831    -0.411484     0.978601
 H     4.703275    -0.060728     1.909234
 C     6.343944    -1.334411    -1.346125
 H     6.820516    -1.711515    -2.254136
 C     6.391456     0.112925     0.597875
 C     7.046288     1.185376     1.417637
 H     8.136080     1.198441     1.274499
 H     6.663301     2.178630     1.129562
 H     6.840261     1.057587     2.490308
 C     6.982231    -0.362641    -0.578289
 H     7.957175     0.023801    -0.887746
 H     2.665373    -0.983535    -2.058831
 H     1.008981    -0.341545    -2.088370
 C     2.468948     1.093710    -1.466939
 C     1.550647     2.125172    -1.247738
 H     0.498300     1.868363    -1.137969
 C     3.821349     1.420249    -1.610345
 H     4.549740     0.626764    -1.789537
 C     1.976645     3.446241    -1.164815
 H     1.246440     4.242504    -0.994603
 C     4.268075     2.744245    -1.525827
 C     5.720005     3.078032    -1.717039
 H     5.902973     3.480457    -2.727328
 H     6.055171     3.843852    -1.000800
 H     6.352995     2.188374    -1.595132
 C     3.328643     3.755762    -1.292212
 H     3.661622     4.795100    -1.219553
