  66
scf done:    -3973.290263
 C    -0.205609    -1.353094     3.665685
 H    -1.107830    -1.413910     4.294730
 H     0.164732    -2.384916     3.561368
 C     0.842623    -0.496495     4.368552
 H     0.511666     0.547680     4.489083
 H     1.075382    -0.880414     5.379378
 H     1.793494    -0.476228     3.811636
Ir    -0.638746    -0.545226     1.731646
 O     2.112845    -2.453643     2.039128
 C     0.876563    -2.852060    -0.394347
 C     2.545622    -0.561199     0.161060
 O    -0.685457    -0.403112    -1.592831
 C    -2.689670     1.108508    -0.593012
 C     0.015688     2.043037    -0.495428
 P    -0.990759     0.532902    -0.250666
 P     1.258357    -1.629030     0.900239
 C    -2.312840    -0.068790     2.406733
 O    -3.371885     0.150340     2.794108
 C     3.173661    -3.324131     1.725552
 H     2.815245    -4.217205     1.187967
 H     3.947990    -2.827189     1.114942
 H     3.623168    -3.639799     2.676986
 C    -0.438290    -3.327082    -0.467320
 H    -1.179082    -2.917371     0.228316
 C     1.831570    -3.341938    -1.293294
 H     2.859413    -2.972306    -1.262653
 C    -0.799030    -4.274093    -1.418833
 H    -1.823057    -4.645299    -1.482438
 C     1.482519    -4.287837    -2.252557
 H     2.220169    -4.670583    -2.959528
 C     0.166219    -4.746911    -2.308187
Cl    -0.274908    -5.916350    -3.503986
 C     3.509142     0.003965     1.006300
 H     3.560262    -0.306721     2.053050
 C     2.483775    -0.142488    -1.173187
 H     1.727012    -0.565303    -1.835289
 C     4.386566     0.974941     0.534947
 H     5.133373     1.422860     1.192488
 C     3.351312     0.832946    -1.653379
 H     3.292006     1.176097    -2.687299
 C     4.291249     1.395483    -0.791702
Cl     5.331343     2.650254    -1.366193
 C    -0.819155     0.011609    -2.929142
 H    -1.758096     0.565933    -3.099791
 H     0.029453     0.644138    -3.241400
 H    -0.829828    -0.895033    -3.551499
 C    -3.628224     0.178053    -1.058323
 H    -3.307965    -0.841200    -1.290360
 C    -3.116569     2.400770    -0.271582
 H    -2.401110     3.135309     0.106113
 C    -4.961843     0.533867    -1.222624
 H    -5.694776    -0.186304    -1.589613
 C    -4.451611     2.766210    -0.422511
 H    -4.788607     3.772833    -0.170362
 C    -5.366113     1.830685    -0.902879
Cl    -7.024644     2.280111    -1.101355
 C     0.970956     2.337155     0.485232
 H     1.024975     1.695082     1.370908
 C    -0.083371     2.883291    -1.613751
 H    -0.856001     2.713611    -2.366297
 C     1.838561     3.414433     0.342501
 H     2.588936     3.635700     1.102502
 C     0.784759     3.958420    -1.774806
 H     0.716510     4.610336    -2.647152
 C     1.750450     4.209900    -0.798500
Cl     2.839652     5.536154    -1.002384
