  96
scf done:    -2528.253462
 C    -1.067762    -3.229673     1.213092
 H    -0.664074    -3.771326     2.084152
 H    -2.050246    -2.858979     1.543009
 C    -1.242851    -4.205717     0.055011
 H    -0.281550    -4.646964    -0.253796
 H    -1.915949    -5.042658     0.319909
 H    -1.674117    -3.722238    -0.835975
Ir     0.229132    -1.606910     0.648512
 O    -1.432905     0.277886    -1.581356
 C    -3.199903    -1.375585    -0.405902
 C    -2.185439     0.919233     0.987315
 O     2.300584     1.003506     1.209725
 C     3.382186    -0.774988    -0.512351
 C     1.591803     1.214217    -1.291570
 P     1.787038    -0.043149     0.017121
 P    -1.660690    -0.438816    -0.115454
 C     1.516525    -2.556690     1.599127
 O     2.269778    -3.132854     2.251095
 C    -2.321824     1.233655    -2.140897
 H    -2.314816     1.053533    -3.229149
 H    -3.356114     1.054152    -1.794998
 C    -1.885643     2.653526    -1.849134
 H    -1.910243     2.832139    -0.762975
 H    -0.835622     2.760328    -2.156136
 C    -2.741895     3.692130    -2.556386
 H    -3.797743     3.574207    -2.252694
 H    -2.720416     3.508638    -3.646048
 C    -2.284699     5.113459    -2.269010
 H    -2.329713     5.330960    -1.189839
 H    -1.240875     5.264434    -2.588152
 H    -2.907184     5.857940    -2.788232
 C    -3.474525    -1.849395    -1.693035
 H    -2.805177    -1.587029    -2.515596
 C    -4.058968    -1.737239     0.639238
 H    -3.867122    -1.379788     1.653888
 C    -4.586285    -2.652490    -1.929757
 H    -4.786162    -3.007176    -2.944628
 C    -5.165041    -2.544664     0.395712
 H    -5.824135    -2.814411     1.225528
 C    -5.448004    -3.019989    -0.890819
 C    -6.621841    -3.920908    -1.137337
 H    -6.366139    -4.966889    -0.898959
 H    -7.481463    -3.645722    -0.508691
 H    -6.940235    -3.892099    -2.189079
 C    -3.498039     1.408855     1.013905
 H    -4.283893     0.902125     0.449547
 C    -1.202372     1.593433     1.723095
 H    -0.172712     1.227653     1.704517
 C    -3.812480     2.549383     1.745934
 H    -4.841446     2.919661     1.747440
 C    -1.524854     2.734794     2.449278
 H    -0.740623     3.252446     3.006947
 C    -2.832416     3.235019     2.473828
 C    -3.177353     4.450583     3.281553
 H    -3.439725     4.169502     4.315320
 H    -2.330137     5.149103     3.339351
 H    -4.039824     4.985866     2.859185
 C     2.633990     0.469625     2.480506
 H     1.747545    -0.030396     2.913073
 H     3.424246    -0.295320     2.372552
 C     3.111442     1.594779     3.370439
 H     3.448641     1.153578     4.324453
 H     4.001261     2.059167     2.910199
 C     2.053442     2.656337     3.634204
 H     1.175393     2.175156     4.100526
 H     1.704234     3.052605     2.666216
 C     2.545861     3.794726     4.511925
 H     2.876482     3.428575     5.497320
 H     3.402179     4.312456     4.050463
 H     1.759036     4.545144     4.684359
 C     3.424060    -2.073955    -1.021559
 H     2.500235    -2.659393    -1.061811
 C     4.565631    -0.028611    -0.452583
 H     4.536525     0.992992    -0.064653
 C     4.628275    -2.616571    -1.466775
 H     4.644824    -3.634060    -1.867031
 C     5.764612    -0.581599    -0.884195
 H     6.683064     0.009990    -0.827040
 C     5.817712    -1.885086    -1.400268
 C     7.122584    -2.478843    -1.843256
 H     7.733844    -2.775884    -0.974842
 H     6.969775    -3.374384    -2.461775
 H     7.716065    -1.756812    -2.424309
 C     1.781892     2.576855    -1.057822
 H     2.008895     2.920451    -0.047733
 C     1.309779     0.780254    -2.592027
 H     1.148990    -0.283564    -2.785217
 C     1.694572     3.487613    -2.111156
 H     1.844439     4.552755    -1.912773
 C     1.230578     1.692697    -3.635628
 H     1.013975     1.336248    -4.646707
 C     1.418167     3.065425    -3.414382
 C     1.279153     4.049606    -4.538321
 H     1.734846     3.671430    -5.465655
 H     0.215882     4.247169    -4.756849
 H     1.748636     5.012723    -4.292709
