  94
scf done:    -2750.506999
 C    -2.187243     1.391605    -2.714655
 H    -1.961818     1.828599    -3.699915
 H    -2.749185     0.467842    -2.915244
 C    -3.050079     2.362966    -1.916537
 H    -2.544192     3.328317    -1.752046
 H    -4.001233     2.583116    -2.435785
 H    -3.312920     1.962228    -0.923961
Ir    -0.406972     0.991218    -1.597233
 O    -1.483611    -0.938610     1.065085
 O    -3.129921    -0.757815    -0.877024
 O    -1.159093    -2.215173    -1.014943
 O     2.852301     0.685195    -1.121714
 O     1.858817     2.360408     0.434105
 O     1.525941    -0.123770     0.926855
 P     1.470946     0.929366    -0.343403
 P    -1.538929    -0.695005    -0.531783
 C     0.534062     1.783131    -3.012198
 O     1.116591     2.138814    -3.935824
 C    -1.475565     0.159644     1.995376
 H    -0.854015     0.964825     1.567691
 C    -0.828787    -0.354310     3.259382
 H     0.177752    -0.734419     3.041197
 H    -1.429182    -1.168714     3.693141
 H    -0.748006     0.456342     3.997841
 C    -2.882962     0.681825     2.202876
 H    -3.298320     1.087365     1.268527
 H    -3.549426    -0.119161     2.556823
 H    -2.872429     1.493577     2.944975
 C    -4.130055    -1.433954    -0.227494
 C    -5.382301    -0.821047    -0.214755
 H    -5.497436     0.145694    -0.708655
 C    -3.947104    -2.666775     0.395129
 H    -2.968042    -3.143035     0.379260
 C    -6.449059    -1.443090     0.424091
 H    -7.426387    -0.952299     0.429437
 C    -5.027084    -3.270885     1.035143
 H    -4.875374    -4.236111     1.526428
 C    -6.294192    -2.679396     1.063791
 C    -7.457004    -3.358479     1.727876
 H    -8.127542    -2.631466     2.209811
 H    -7.122885    -4.073170     2.493727
 H    -8.060250    -3.920796     0.995341
 C     0.096711    -2.767849    -1.074910
 C     1.100561    -2.224381    -1.875836
 H     0.895835    -1.307500    -2.434108
 C     0.327178    -3.944803    -0.366798
 H    -0.473634    -4.362868     0.245434
 C     2.342970    -2.846672    -1.930940
 H     3.129554    -2.395959    -2.541702
 C     1.569428    -4.571344    -0.457182
 H     1.740228    -5.497540     0.098514
 C     2.604711    -4.028024    -1.225866
 C     3.966604    -4.657241    -1.261210
 H     4.674061    -4.089129    -0.633496
 H     4.379004    -4.672155    -2.281296
 H     3.945277    -5.690784    -0.887224
 C     4.152048     1.279938    -0.930906
 H     4.184980     1.735198     0.069507
 C     4.329579     2.358699    -1.977521
 H     3.566930     3.140717    -1.854066
 H     4.231367     1.934853    -2.988255
 H     5.321943     2.824936    -1.885485
 C     5.166223     0.161400    -1.015407
 H     4.972003    -0.594918    -0.241332
 H     5.118028    -0.324120    -2.002067
 H     6.182570     0.556844    -0.870793
 C     0.846583     2.982231     1.132348
 C    -0.183887     3.632675     0.449437
 H    -0.161073     3.670581    -0.641646
 C     0.835692     2.931650     2.523232
 H     1.635681     2.411954     3.051989
 C    -1.231826     4.200814     1.165377
 H    -2.042429     4.690044     0.618600
 C    -0.215122     3.519292     3.227050
 H    -0.216590     3.470990     4.319424
 C    -1.272552     4.150763     2.565310
 C    -2.423941     4.749566     3.319477
 H    -2.556881     5.813999     3.070405
 H    -2.278297     4.673022     4.406036
 H    -3.368909     4.240225     3.069768
 C     2.656237    -0.577630     1.559344
 C     3.542022     0.274966     2.215757
 H     3.358315     1.349266     2.220277
 C     2.886835    -1.951662     1.552778
 H     2.176854    -2.598879     1.038706
 C     4.669990    -0.256099     2.840392
 H     5.365391     0.421347     3.343551
 C     4.013030    -2.465151     2.185471
 H     4.184321    -3.545403     2.167175
 C     4.930794    -1.629790     2.837275
 C     6.135107    -2.199165     3.529264
 H     6.876237    -1.419821     3.756076
 H     6.626848    -2.967536     2.913624
 H     5.856097    -2.678199     4.482425
