  90
scf done:    -2298.377146
 C     2.658367    -2.510879    -0.367244
 H     2.822291    -2.827237    -1.412978
 H     3.515582    -1.861593    -0.125782
 C     2.705209    -3.737744     0.540340
 H     1.953060    -4.491415     0.257832
 H     3.690949    -4.237299     0.505732
 H     2.509943    -3.484784     1.594807
Ir     0.781240    -1.445684    -0.261403
 O     3.313204     0.228609     1.253572
 O     2.915890     1.046463    -1.021218
 O     1.325637     1.731835     0.763986
 O    -1.603847     0.812435    -1.010318
 O    -2.523974    -1.431842    -0.594222
 O    -1.894922    -0.106705     1.366748
 P    -1.273462    -0.493230    -0.105802
 P     2.078215     0.408564     0.203879
 C     0.049550    -2.999814    -1.012336
 O    -0.355316    -3.928770    -1.551159
 C     3.107867    -0.513447     2.464666
 H     2.290290    -1.239677     2.283474
 C     2.706115     0.431277     3.581789
 H     1.785360     0.975078     3.328039
 H     3.502824     1.169036     3.763807
 H     2.531324    -0.126563     4.513830
 C     4.388852    -1.263099     2.755254
 H     4.636216    -1.942477     1.928566
 H     5.221103    -0.554697     2.886990
 H     4.286462    -1.857390     3.675112
 C     3.176397     0.406724    -2.271767
 H     3.925917     1.052107    -2.755042
 H     3.637956    -0.577836    -2.098881
 C     1.937589     0.275806    -3.131894
 H     2.249626    -0.156868    -4.098929
 H     1.262987    -0.464565    -2.657167
 C     1.184190     1.578831    -3.347539
 H     1.863400     2.336172    -3.780224
 H     0.870657     1.969834    -2.366909
 C    -0.040640     1.406690    -4.228440
 H     0.230013     1.050421    -5.235622
 H    -0.730915     0.673458    -3.785090
 H    -0.589942     2.353831    -4.345447
 C     2.021188     2.954790     1.024542
 H     1.570950     3.359248     1.945821
 H     3.081263     2.740540     1.231501
 C     1.870011     3.933879    -0.120067
 H     2.394960     4.864262     0.160402
 H     2.394210     3.527895    -0.999788
 C     0.419623     4.226272    -0.470462
 H    -0.088033     4.664911     0.408168
 H    -0.088336     3.268959    -0.664561
 C     0.265188     5.145540    -1.669730
 H     0.753835     6.118873    -1.501198
 H     0.719698     4.699453    -2.568989
 H    -0.794076     5.341833    -1.895651
 C    -2.946397     1.331511    -1.110489
 H    -3.541114     0.901902    -0.287348
 C    -3.545809     0.906732    -2.435061
 H    -3.530339    -0.187460    -2.522965
 H    -2.976569     1.338354    -3.271710
 H    -4.588001     1.252802    -2.510568
 C    -2.882679     2.832873    -0.942412
 H    -2.441668     3.101099     0.027128
 H    -2.272689     3.284712    -1.738742
 H    -3.894317     3.262525    -0.995010
 C    -2.934750    -2.555807     0.173782
 H    -3.081690    -3.383994    -0.538439
 H    -2.130240    -2.860201     0.866689
 C    -4.210715    -2.264354     0.936677
 H    -4.461955    -3.158202     1.535138
 H    -4.007527    -1.449664     1.650932
 C    -5.385303    -1.891902     0.043135
 H    -5.598829    -2.728367    -0.645973
 H    -5.088265    -1.045673    -0.597904
 C    -6.638210    -1.532797     0.824584
 H    -6.973186    -2.371484     1.456345
 H    -6.457638    -0.673716     1.490970
 H    -7.471880    -1.266653     0.157115
 C    -1.098960     0.264019     2.478810
 H    -1.485169    -0.299594     3.344741
 H    -0.057298    -0.057603     2.309864
 C    -1.174985     1.754861     2.728499
 H    -0.503968     1.998186     3.572079
 H    -0.760132     2.267708     1.846298
 C    -2.579926     2.261310     3.019903
 H    -2.966194     1.770219     3.930738
 H    -3.246490     1.941754     2.201674
 C    -2.643094     3.771356     3.179668
 H    -2.001100     4.115386     4.006831
 H    -2.298763     4.282316     2.265544
 H    -3.666798     4.117794     3.387303
