  94
scf done:    -2750.507520
 C    -1.438938     1.086902    -3.251987
 H    -1.165867     0.839619    -4.289745
 H    -2.445251     0.669413    -3.098624
 C    -1.447827     2.603236    -3.080149
 H    -0.458268     3.044031    -3.282152
 H    -2.164123     3.090436    -3.767730
 H    -1.725971     2.908855    -2.057664
Ir    -0.059158     0.270205    -1.838241
 O    -2.006539     1.539008     0.616615
 O    -3.182485    -0.153938    -0.949777
 O    -1.645341    -0.868511     0.943602
 O     1.897358    -1.624903     0.185256
 O     2.975621     0.551873    -0.703681
 O     1.235292     0.581590     1.191951
 P     1.529819    -0.124703    -0.284544
 P    -1.733546     0.232184    -0.282889
 C     0.969034    -0.272501    -3.308320
 O     1.510602    -0.707623    -4.222797
 C    -2.555790     1.608280     1.956208
 H    -3.192993     0.723755     2.109598
 C    -3.398750     2.861155     2.025680
 H    -4.238421     2.812867     1.320291
 H    -2.787386     3.746436     1.794083
 H    -3.809394     2.978204     3.039357
 C    -1.417584     1.601301     2.953113
 H    -0.799318     0.703965     2.827778
 H    -0.773974     2.482967     2.814803
 H    -1.815317     1.618836     3.978863
 C    -4.391892    -0.110571    -0.291943
 C    -4.790398    -1.183358     0.501714
 H    -4.137000    -2.053178     0.588554
 C    -5.213715     1.008606    -0.492827
 C    -4.778836     2.117075    -1.400763
 H    -3.827863     2.557511    -1.066615
 H    -4.606849     1.745388    -2.422543
 H    -5.535765     2.911802    -1.441920
 C    -6.020205    -1.134965     1.154980
 H    -6.333999    -1.974414     1.779619
 C    -6.442477     1.027931     0.174962
 H    -7.099472     1.890989     0.036780
 C    -6.843863    -0.022370     0.999190
 H    -7.809096     0.023631     1.508333
 C    -1.579270    -2.235267     0.838265
 C    -1.151676    -2.882892    -0.317430
 H    -0.850939    -2.289413    -1.187344
 C    -1.951541    -2.946792     1.990110
 C    -2.401473    -2.214078     3.215573
 H    -1.617942    -1.532560     3.582010
 H    -3.285986    -1.591451     3.004965
 H    -2.655494    -2.914780     4.022240
 C    -1.079040    -4.273971    -0.332141
 H    -0.736898    -4.781186    -1.236936
 C    -1.869246    -4.340606     1.942732
 H    -2.151916    -4.911931     2.831140
 C    -1.435468    -5.007008     0.796978
 H    -1.379860    -6.097715     0.787601
 C     2.543287    -2.027548     1.413310
 H     3.174458    -1.193967     1.763473
 C     3.419852    -3.215873     1.087171
 H     4.201878    -2.943280     0.366688
 H     2.808746    -4.027891     0.665112
 H     3.907961    -3.584717     2.001341
 C     1.484713    -2.349017     2.447173
 H     0.828396    -1.484519     2.613207
 H     0.865621    -3.193506     2.111114
 H     1.959592    -2.621598     3.401998
 C     4.252202     0.171049    -0.353849
 C     4.910612     0.848445     0.670421
 H     4.392695     1.651903     1.194502
 C     4.887525    -0.836177    -1.097576
 C     4.189342    -1.503339    -2.241309
 H     4.845245    -2.239640    -2.724830
 H     3.277039    -2.021984    -1.908811
 H     3.881439    -0.767882    -2.999073
 C     6.215438     0.495190     1.005041
 H     6.727197     1.024644     1.811862
 C     6.198542    -1.168048    -0.738334
 H     6.711115    -1.951779    -1.302818
 C     6.858943    -0.523071     0.305464
 H     7.882146    -0.807198     0.561223
 C     1.842087     1.638762     1.813922
 C     2.437695     1.397284     3.051432
 H     2.419235     0.381958     3.451010
 C     1.804340     2.927167     1.256721
 C     1.095697     3.198542    -0.033093
 H     1.596938     2.709398    -0.883647
 H     0.064820     2.812996    -0.003108
 H     1.057949     4.276647    -0.238642
 C     3.047269     2.436171     3.748229
 H     3.516680     2.240959     4.714994
 C     2.436279     3.949288     1.975137
 H     2.427183     4.959107     1.556268
 C     3.057648     3.717549     3.200816
 H     3.538865     4.541370     3.732354
