 102
scf done:    -3055.057899
 C    -0.458098    -3.653870    -0.105184
 H     0.162184    -4.449429     0.336961
 H    -1.431981    -3.690956     0.402204
 C    -0.640278    -3.902538    -1.596452
 H     0.316364    -3.898515    -2.142204
 H    -1.120994    -4.879932    -1.789845
 H    -1.279340    -3.135689    -2.064284
Ir     0.468182    -1.737783    -0.010535
 C    -2.175058     0.774780    -0.050186
 O    -2.825579    -1.781459     0.376430
 O    -1.585055    -0.485449     2.190582
 C     1.132756     1.896575    -0.350562
 O     3.105769     0.151179     0.217265
 O     1.980376     0.207064    -2.138778
 P     1.625256     0.163096    -0.510748
 P    -1.507883    -0.799773     0.560258
 C     2.008874    -2.561864     0.663078
 O     2.882047    -3.020077     1.256074
 C    -2.441960     0.896597    -1.421974
 H    -2.205043     0.067027    -2.095199
 C    -2.477247     1.845657     0.789653
 H    -2.281263     1.759564     1.859242
 C    -3.013086     2.049920    -1.934258
 H    -3.238091     2.153268    -2.997277
 C    -3.045529     3.013246     0.286825
 H    -3.263290     3.835557     0.968320
 C    -3.322213     3.117680    -1.078904
 O    -3.868320     4.210347    -1.652735
 C    -4.477266     5.166842    -0.825252
 H    -3.745163     5.696309    -0.191112
 H    -4.959573     5.895276    -1.489313
 H    -5.241457     4.707295    -0.175252
 C    -4.144124    -1.425570     0.498467
 C    -4.630019    -0.776263     1.632132
 H    -3.939901    -0.529411     2.439239
 C    -4.989890    -1.783136    -0.563032
 C    -4.433478    -2.489846    -1.760179
 H    -5.229755    -2.749619    -2.470715
 H    -3.695590    -1.862857    -2.285900
 H    -3.903398    -3.409633    -1.470464
 C    -5.984320    -0.458928     1.713348
 H    -6.365530     0.051215     2.601086
 C    -6.343790    -1.457716    -0.449732
 H    -7.018377    -1.730070    -1.266141
 C    -6.844149    -0.797981     0.671987
 H    -7.907244    -0.554616     0.732779
 C    -0.525295    -0.591730     3.062928
 C     0.197645     0.559564     3.360505
 H    -0.079811     1.492004     2.867491
 C    -0.248985    -1.816036     3.685296
 C    -1.062605    -3.035264     3.387446
 H    -2.126708    -2.786714     3.265747
 H    -0.734484    -3.496811     2.443935
 H    -0.960644    -3.780871     4.187584
 C     1.250938     0.505362     4.268842
 H     1.817287     1.410262     4.502711
 C     0.820010    -1.844970     4.587663
 H     1.062198    -2.791328     5.078525
 C     1.570841    -0.707466     4.875925
 H     2.399455    -0.767140     5.585053
 C     1.325327     2.588082     0.854562
 H     1.869459     2.111974     1.672594
 C     0.474783     2.541726    -1.397684
 H     0.340918     2.027403    -2.350167
 C     0.847367     3.878810     1.011136
 H     0.996258     4.431985     1.940194
 C    -0.003646     3.839950    -1.255049
 H    -0.521259     4.309214    -2.090950
 C     0.166864     4.511271    -0.040368
 O    -0.288109     5.755366     0.199403
 C    -0.851829     6.476123    -0.863164
 H    -1.739091     5.970250    -1.280373
 H    -1.150212     7.451431    -0.458338
 H    -0.123400     6.633762    -1.677737
 C     4.100949     1.092994     0.191928
 C     4.307950     1.950996    -0.886362
 H     3.655309     1.891213    -1.757479
 C     4.925348     1.118867     1.328291
 C     4.669923     0.162652     2.451976
 H     5.376538     0.324994     3.277229
 H     3.644182     0.262094     2.840251
 H     4.756805    -0.881468     2.113450
 C     5.352786     2.872381    -0.832542
 H     5.515840     3.548620    -1.674864
 C     5.965379     2.050510     1.348833
 H     6.618986     2.086733     2.224765
 C     6.181757     2.925844     0.284469
 H     7.001638     3.646162     0.328297
 C     1.757850    -0.882857    -2.950453
 C     0.544400    -0.971703    -3.629007
 H    -0.208357    -0.199197    -3.460202
 C     2.773626    -1.833555    -3.129343
 C     4.074595    -1.711973    -2.397367
 H     4.487424    -0.695555    -2.482428
 H     3.950332    -1.910530    -1.321634
 H     4.812412    -2.424263    -2.790118
 C     0.316396    -2.024356    -4.511097
 H    -0.635737    -2.095326    -5.041492
 C     2.516996    -2.881136    -4.019866
 H     3.293839    -3.634037    -4.177902
 C     1.307537    -2.982823    -4.705720
 H     1.140423    -3.815023    -5.392934
