 110
scf done:    -3283.763991
 C    -1.381875     1.531676    -2.772128
 H    -1.410435     0.822415    -3.618762
 H    -2.400972     1.500782    -2.352863
 C    -1.140461     2.931681    -3.333265
 H    -0.202034     2.995983    -3.905265
 H    -1.955197     3.251625    -4.009406
 H    -1.069963     3.699074    -2.542916
Ir     0.074450     0.753097    -1.373798
 C    -2.520800     1.736201     0.781964
 C    -3.267389    -0.458793    -1.017470
 C    -1.897790    -0.964350     1.492292
 C     1.157226    -1.803117     0.649712
 C     3.324351    -0.457108    -0.883161
 C     2.458131     0.677683     1.491690
 P     1.722680    -0.170310     0.020334
 P    -1.876698     0.164685     0.030584
 C     1.289421     1.275103    -2.625287
 O     2.015305     1.587561    -3.473716
 C    -3.239627     1.790920     1.983226
 C    -2.220320     2.931788     0.129241
 C    -3.361813     4.201755     1.840287
 C    -2.651466     4.156234     0.645778
 C    -3.646836     3.009998     2.512794
 H    -3.485644     0.865564     2.506444
 H    -4.197401     3.031820     3.457329
 H    -3.691014     5.159064     2.252506
 H    -2.415069     5.078844     0.109138
 H    -1.619868     2.896019    -0.780661
 C    -4.627348    -0.237131    -0.738383
 O    -4.923944     0.278722     0.466832
 C    -6.202941     0.783793     0.718911
 H    -6.147635     1.294952     1.689063
 H    -6.511353     1.513641    -0.048662
 H    -6.958847    -0.018983     0.777968
 C    -2.954022    -1.184088    -2.186074
 O    -1.675506    -1.547649    -2.331423
 C    -1.197069    -1.978704    -3.574077
 H    -0.102494    -1.991656    -3.492979
 H    -1.477326    -1.280182    -4.379378
 H    -1.563611    -2.990747    -3.821643
 C    -3.941879    -1.530115    -3.115303
 H    -3.678968    -2.060768    -4.029540
 C    -5.624204    -0.578296    -1.663638
 H    -6.672362    -0.374429    -1.448729
 C    -5.266856    -1.206161    -2.849753
 H    -6.041989    -1.471435    -3.572887
 C    -2.521153    -2.228202     1.513556
 O    -2.929648    -2.725188     0.339009
 C    -3.651749    -3.918189     0.282730
 H    -3.922346    -4.061357    -0.771670
 H    -3.046232    -4.777147     0.621762
 H    -4.575762    -3.868288     0.884583
 C    -1.321402    -0.505659     2.692044
 O    -0.625904     0.637980     2.595330
 C    -0.320570     1.357648     3.757314
 H     0.018583     2.345637     3.430430
 H     0.490610     0.877715     4.330528
 H    -1.210348     1.477264     4.397798
 C    -1.484804    -1.194289     3.898768
 H    -1.047273    -0.811913     4.819938
 C    -2.694626    -2.922570     2.719619
 H    -3.201555    -3.886238     2.731101
 C    -2.190989    -2.390848     3.898617
 H    -2.324967    -2.937900     4.834955
 C     0.537308    -2.636814    -0.288501
 C     1.217513    -2.217294     1.980623
 C     0.146420    -4.308203     1.404192
 C     0.713707    -3.462167     2.354440
 C     0.050848    -3.885732     0.077729
 H     0.436330    -2.283268    -1.314924
 H    -0.424509    -4.522185    -0.673032
 H    -0.244279    -5.284284     1.703836
 H     0.753773    -3.766293     3.403057
 H     1.644348    -1.561330     2.739213
 C     4.010504     0.705652    -1.287873
 O     3.459970     1.870139    -0.899468
 C     3.945769     3.078857    -1.407960
 H     3.280276     3.862403    -1.024254
 H     4.974938     3.282644    -1.064109
 H     3.910730     3.090681    -2.509614
 C     3.902523    -1.698336    -1.212841
 O     3.280858    -2.802261    -0.765014
 C     3.747853    -4.070674    -1.105839
 H     3.039254    -4.783709    -0.663677
 H     4.756199    -4.265209    -0.697104
 H     3.776597    -4.222795    -2.199537
 C     5.085374    -1.768577    -1.961682
 H     5.518113    -2.734395    -2.219501
 C     5.191338     0.643713    -2.037136
 H     5.694372     1.554987    -2.356887
 C     5.713050    -0.598080    -2.371182
 H     6.632158    -0.657300    -2.959074
 C     2.129315     2.011338     1.800497
 O     1.147787     2.577312     1.088202
 C     0.961655     3.960906     1.127070
 H     0.270286     4.198919     0.310856
 H     0.507695     4.294389     2.077787
 H     1.910312     4.504281     0.974211
 C     3.533097     0.088192     2.188177
 O     3.873047    -1.152664     1.801889
 C     4.987529    -1.789179     2.350175
 H     5.072179    -2.753053     1.832494
 H     4.866582    -1.975026     3.432152
 H     5.911949    -1.209052     2.185615
 C     4.209859     0.770919     3.207815
 H     5.027590     0.297711     3.749967
 C     2.813023     2.706942     2.809783
 H     2.544568     3.734713     3.051868
 C     3.835894     2.075743     3.506125
 H     4.361623     2.617689     4.296305
