  86
scf done:    -1923.359696
 C    -1.548058     0.984887    -2.470171
 H    -1.237117     0.625122    -3.467312
 H    -2.491764     0.454429    -2.261198
 C    -1.842009     2.480113    -2.556425
 H    -0.958480     3.053435    -2.880481
 H    -2.655736     2.705015    -3.271539
 H    -2.147125     2.900989    -1.583868
Ir    -0.029461     0.578606    -1.004412
 C    -2.739759    -0.393510     1.121577
 C    -2.452389    -2.000278    -1.288003
 C    -0.693221    -2.389568     0.968908
 C     2.750510    -0.765615     0.872695
 C     2.688630     2.098273     0.528062
 C     0.915498     0.817132     2.439075
 P     1.552809     0.649974     0.709814
 P    -1.455903    -1.052942    -0.053072
 C     1.152900     1.383863    -2.177484
 O     1.920415     1.758452    -2.957266
 H    -2.144123    -0.145592     2.020332
 C    -3.844136    -1.363793     1.541771
 H    -3.421694    -2.297629     1.945971
 H    -4.438782    -1.645606     0.655465
 C    -4.768135    -0.723212     2.575435
 H    -5.568645    -1.428056     2.853290
 H    -4.193249    -0.525583     3.498546
 C    -5.361678     0.584205     2.062794
 H    -5.995539     1.047230     2.836280
 H    -6.025572     0.367249     1.206304
 C    -4.270383     1.550412     1.615951
 H    -3.677383     1.862070     2.494799
 H    -4.713782     2.468823     1.198996
 C    -3.339731     0.910706     0.592147
 H    -3.902154     0.704190    -0.335866
 H    -2.531534     1.601181     0.301405
 H    -2.883792    -2.881137    -0.782533
 H    -3.301480    -1.348790    -1.553698
 C    -1.709236    -2.399189    -2.558869
 H    -0.957607    -3.170178    -2.328438
 H    -1.139820    -1.529715    -2.921180
 C    -2.648250    -2.905586    -3.641783
 H    -3.226713    -3.781185    -3.304014
 H    -3.368487    -2.124851    -3.934871
 H    -2.094133    -3.201061    -4.545604
 H    -0.146443    -1.878386     1.778272
 H    -1.501140    -2.962946     1.453576
 C     0.239697    -3.335470     0.224684
 H     0.954390    -2.748509    -0.375604
 H    -0.342644    -3.927481    -0.498620
 C     0.979365    -4.280064     1.159442
 H     1.610632    -3.727408     1.874204
 H     0.277092    -4.891944     1.747919
 H     1.634560    -4.966490     0.601944
 H     2.101642    -1.600733     1.192133
 C     3.864637    -0.618967     1.909252
 H     3.449946    -0.388598     2.903597
 H     4.513969     0.230152     1.633811
 C     4.714650    -1.885960     1.981848
 H     5.525402    -1.755125     2.717112
 H     4.090052    -2.718688     2.353775
 C     5.285497    -2.256745     0.617734
 H     5.867297    -3.190307     0.685867
 H     5.994887    -1.471547     0.298698
 C     4.183463    -2.388326    -0.427590
 H     3.541384    -3.250356    -0.171652
 H     4.614651    -2.606766    -1.417817
 C     3.323139    -1.131436    -0.499028
 H     3.937321    -0.292922    -0.874351
 H     2.498190    -1.248675    -1.220633
 H     3.382587     2.136381     1.383891
 H     3.297639     1.861607    -0.361494
 C     2.007879     3.449442     0.322844
 H     1.646853     3.832816     1.290953
 H     1.109367     3.310039    -0.302539
 C     2.930088     4.472517    -0.321140
 H     3.847969     4.620863     0.270888
 H     3.230999     4.143972    -1.328659
 H     2.436306     5.450901    -0.422972
 H     0.530676    -0.178901     2.720380
 H     1.757034     1.025759     3.120974
 C    -0.184991     1.857530     2.612621
 H    -0.917067     1.745732     1.796074
 H     0.236688     2.866272     2.486012
 C    -0.878726     1.763234     3.962273
 H    -1.366686     0.783277     4.094960
 H    -0.164599     1.887562     4.792144
 H    -1.654213     2.536742     4.071376
