  90
scf done:    -2374.023905
 C     0.124718    -3.084446     1.657752
 H     0.647719    -3.322694     2.598516
 H    -0.950583    -3.156294     1.895560
 C     0.466595    -4.122352     0.593571
 H     1.543656    -4.132624     0.359405
 H     0.193361    -5.144835     0.914349
 H    -0.068454    -3.931348    -0.351423
Ir     0.712294    -1.170884     0.865170
 C    -2.485943    -1.882298    -0.413244
 O    -2.390171    -0.989183     2.068808
 O    -1.967109     0.706543     0.203921
 C     1.522340     2.278113    -0.025436
 O     2.843123     0.358114    -1.177961
 O     0.378814     0.576626    -1.825074
 P     1.354400     0.525771    -0.495630
 P    -1.534873    -0.799897     0.687264
 C     2.364228    -1.365686     1.731142
 O     3.301421    -1.415405     2.397889
 C    -2.006671    -2.016504    -1.723312
 C    -3.620462    -2.588562    -0.006066
 C    -3.813573    -3.538877    -2.219936
 C    -4.282236    -3.415616    -0.912390
 C    -2.675453    -2.840092    -2.625028
 H    -1.105307    -1.472052    -2.022461
 H    -2.302751    -2.944791    -3.646638
 H    -4.333500    -4.190539    -2.926411
 H    -5.167813    -3.971233    -0.594523
 H    -3.970668    -2.487289     1.023008
 C    -1.780350    -0.820753     3.350453
 H    -2.518431    -1.213387     4.066909
 H    -0.875210    -1.446194     3.399272
 C    -1.430806     0.618538     3.662042
 H    -0.916284     0.627950     4.639081
 H    -0.676666     0.959771     2.930298
 C    -2.618900     1.567092     3.691174
 H    -3.329444     1.238237     4.470186
 H    -3.164067     1.486371     2.737859
 C    -2.221301     3.013724     3.931540
 H    -1.706015     3.134532     4.897867
 H    -1.529170     3.366929     3.150853
 H    -3.095497     3.682470     3.933231
 C    -3.327030     1.067794    -0.009017
 H    -3.677678     0.612071    -0.952072
 H    -3.950583     0.670354     0.809276
 C    -3.417964     2.576199    -0.070658
 H    -4.485044     2.855197    -0.119206
 H    -3.035284     2.988907     0.879372
 C    -2.662846     3.184551    -1.243361
 H    -3.126395     2.837723    -2.182676
 H    -1.637149     2.782731    -1.247642
 C    -2.625652     4.702275    -1.213912
 H    -3.640272     5.132825    -1.216705
 H    -2.112113     5.068920    -0.310958
 H    -2.088091     5.109543    -2.083600
 C     2.661954     3.035161    -0.319279
 C     0.459127     2.867116     0.670920
 C     1.666110     4.958409     0.753959
 C     0.530786     4.204662     1.052136
 C     2.730787     4.371184     0.071927
 H     3.491171     2.566124    -0.851177
 H     3.624042     4.957677    -0.156809
 H     1.723147     6.005886     1.059922
 H    -0.301996     4.661376     1.592582
 H    -0.425887     2.268331     0.900140
 C     3.234763    -0.901005    -1.707822
 H     2.834157    -1.709013    -1.066621
 H     2.790958    -1.024912    -2.711696
 C     4.743674    -0.958540    -1.778332
 H     5.023776    -1.896426    -2.289239
 H     5.098606    -0.136689    -2.425518
 C     5.424683    -0.878333    -0.419578
 H     5.087295    -1.721329     0.206881
 H     5.078608     0.031416     0.097481
 C     6.941296    -0.878273    -0.511054
 H     7.315796    -1.792996    -0.998931
 H     7.307292    -0.020572    -1.098715
 H     7.405077    -0.820242     0.485093
 C     0.659105     1.437634    -2.920967
 H     0.316211     2.459609    -2.678257
 H     1.747579     1.482340    -3.091993
 C    -0.050971     0.902902    -4.145088
 H     0.284720     1.481115    -5.023638
 H     0.288257    -0.135290    -4.310481
 C    -1.569410     0.942779    -4.043449
 H    -1.896528     1.995906    -4.005919
 H    -1.873254     0.500193    -3.081282
 C    -2.267309     0.226690    -5.186685
 H    -2.000910     0.665268    -6.162101
 H    -1.986102    -0.838393    -5.219169
 H    -3.362141     0.274842    -5.086578
