  98
scf done:    -2754.250427
 C     1.854951    -0.642226    -2.633760
 H     1.559593    -0.361728    -3.659636
 H     2.673924     0.050512    -2.379654
 C     2.393926    -2.067549    -2.632519
 H     1.632191    -2.794628    -2.957433
 H     3.263481    -2.177325    -3.307198
 H     2.729116    -2.376814    -1.629560
Ir     0.179413    -0.517641    -1.291558
 C     3.248718     0.031406     0.208418
 C     2.053038     2.427114    -0.951633
 C     1.147514     1.493872     1.618312
 C    -2.842437     0.550025     0.276952
 C    -2.737192    -2.187996    -0.694843
 C    -1.526478    -1.522695     1.807589
 P    -1.706171    -0.872027     0.090572
 P     1.640787     0.876586    -0.044268
 C    -0.802798    -1.080843    -2.756520
 O    -1.383793    -1.289366    -3.730777
 C     4.469406     0.542533    -0.256672
 H     4.499202     1.515686    -0.750870
 C     3.249859    -1.248573     0.772843
 H     2.308984    -1.710216     1.080911
 C     5.644851    -0.180877    -0.124821
 H     6.594214     0.211306    -0.493840
 C     4.425015    -1.980455     0.928275
 H     4.376398    -2.973493     1.375002
 C     5.637938    -1.445304     0.479114
 O     6.825207    -2.071035     0.570203
 C     6.872493    -3.354149     1.129596
 H     6.263649    -4.074282     0.555281
 H     7.922062    -3.672486     1.098160
 H     6.530371    -3.357317     2.179625
 C     1.510605     2.558064    -2.236631
 H     0.896331     1.735655    -2.615518
 C     2.814974     3.484059    -0.401624
 C     3.381674     3.488283     0.990070
 H     3.767078     2.509391     1.299758
 H     2.611184     3.769078     1.725607
 H     4.199603     4.218803     1.065144
 C     1.721333     3.701193    -2.999018
 H     1.287668     3.777110    -3.998615
 C     3.020188     4.621880    -1.194794
 H     3.615449     5.441791    -0.783441
 C     2.486860     4.738670    -2.474511
 H     2.668715     5.644218    -3.058739
 C     1.795027     1.050193     2.776822
 H     2.664821     0.395245     2.689576
 C     0.045602     2.369873     1.723013
 C    -0.622616     2.965899     0.521919
 H    -0.703118     2.240832    -0.301565
 H    -0.042427     3.821575     0.140473
 H    -1.632122     3.318231     0.770413
 C     1.348626     1.428150     4.038664
 H     1.864892     1.066002     4.930727
 C    -0.394646     2.725725     3.003991
 H    -1.259595     3.389062     3.090479
 C     0.238459     2.261193     4.152948
 H    -0.132422     2.555430     5.137694
 C    -3.265693     1.043392     1.518601
 H    -2.952195     0.544964     2.438355
 C    -3.219328     1.249701    -0.875204
 H    -2.854967     0.915496    -1.850572
 C    -4.063470     2.176162     1.601350
 H    -4.393250     2.567111     2.565827
 C    -4.030836     2.379089    -0.808022
 H    -4.304792     2.892389    -1.729807
 C    -4.461919     2.850327     0.439328
 O    -5.237971     3.936466     0.614399
 C    -5.651572     4.660500    -0.510892
 H    -6.260336     4.043854    -1.195340
 H    -6.265642     5.491630    -0.141879
 H    -4.794189     5.072015    -1.072134
 C    -4.013990    -1.918407    -1.196497
 H    -4.444594    -0.923496    -1.070002
 C    -2.185320    -3.480820    -0.848007
 C    -0.816153    -3.833911    -0.348583
 H    -0.791102    -3.903852     0.750330
 H    -0.085518    -3.053567    -0.639334
 H    -0.484753    -4.796230    -0.762183
 C    -4.758149    -2.901689    -1.842071
 H    -5.753078    -2.665874    -2.226774
 C    -2.954170    -4.454181    -1.496011
 H    -2.531779    -5.455211    -1.619487
 C    -4.226042    -4.178797    -1.990454
 H    -4.796476    -4.961350    -2.496479
 C    -0.231014    -1.486984     2.326325
 H     0.548524    -1.063189     1.696421
 C    -2.567984    -2.081576     2.587174
 C    -3.988723    -2.221645     2.122839
 H    -4.097884    -3.085376     1.448518
 H    -4.340185    -1.343484     1.567148
 H    -4.656716    -2.376552     2.981826
 C     0.073892    -1.970006     3.593807
 H     1.098102    -1.915575     3.969164
 C    -2.242449    -2.560019     3.863381
 H    -3.040534    -2.987940     4.476333
 C    -0.945669    -2.511598     4.368846
 H    -0.737241    -2.897994     5.369589
