  74
scf done:    -1916.099063
 C    -1.599998    -3.008250    -0.087424
 H    -1.259693    -3.996256     0.261441
 H    -2.519132    -2.812186     0.483962
 C    -1.927782    -3.104163    -1.574226
 H    -1.039156    -3.359094    -2.173826
 H    -2.693436    -3.874095    -1.786284
 H    -2.319122    -2.154292    -1.980849
Ir    -0.087019    -1.517760     0.140529
 C    -1.726103     1.452110    -0.948168
 C    -3.496303    -0.329967     0.485015
 C    -1.319974     1.197831     1.935903
 C     1.955022     1.405714     0.743521
 C     3.369724    -0.904816    -0.198610
 C     1.508848     0.634195    -2.046165
 P     1.695951    -0.063638    -0.326721
 P    -1.702474     0.206151     0.404725
 C     1.005735    -2.858115     0.771872
 O     1.643520    -3.648488     1.327125
 C    -1.317405     2.782844    -0.802064
 C    -2.079820     1.000959    -2.229644
 C    -1.603247     3.172105    -3.173011
 C    -2.025271     1.850773    -3.329318
 C    -1.251964     3.633209    -1.907050
 H    -1.023590     3.167593     0.174337
 H    -0.921993     4.666372    -1.771917
 H    -1.549870     3.838773    -4.036803
 H    -2.302131     1.475619    -4.317429
 H    -2.381722    -0.040296    -2.371665
 H    -3.532295    -1.101307    -0.303302
 C    -3.798312    -1.020896     1.812803
 H    -4.733655    -1.596560     1.729444
 H    -3.000607    -1.715463     2.111104
 H    -3.935236    -0.289624     2.622996
 C    -4.540229     0.730004     0.153447
 H    -4.369188     1.194063    -0.827451
 H    -5.538901     0.263642     0.132621
 H    -4.569377     1.532158     0.903626
 H    -0.411328     1.734868     1.616601
 C    -2.364930     2.223565     2.362535
 H    -1.934821     2.881819     3.134647
 H    -2.710740     2.860366     1.536416
 H    -3.248012     1.740657     2.805304
 C    -0.904770     0.298386     3.097093
 H    -0.206717    -0.479492     2.750522
 H    -0.413027     0.902974     3.875325
 H    -1.768883    -0.203067     3.555675
 C     2.221634     1.161041     2.100334
 C     1.808253     2.732619     0.322503
 C     2.174690     3.528033     2.577980
 C     1.910404     3.784126     1.234983
 C     2.338289     2.209250     3.006715
 H     2.311526     0.129747     2.452787
 H     2.544604     1.995712     4.058298
 H     2.254593     4.352269     3.290523
 H     1.784221     4.812922     0.888035
 H     1.593614     2.959870    -0.721950
 H     3.281962    -1.395878     0.786492
 C     3.513709    -2.007657    -1.242418
 H     4.351234    -2.670725    -0.974878
 H     2.606609    -2.624712    -1.317780
 H     3.729296    -1.590887    -2.238083
 C     4.595327     0.000284    -0.158336
 H     4.505928     0.790666     0.599957
 H     5.484801    -0.601480     0.090061
 H     4.787922     0.480775    -1.127010
 H     0.716854     1.387137    -1.893307
 C     2.723796     1.324454    -2.654992
 H     2.424115     1.858131    -3.571679
 H     3.188882     2.055420    -1.978814
 H     3.495580     0.595561    -2.942897
 C     0.933704    -0.419228    -2.990574
 H     0.081360    -0.943439    -2.530364
 H     0.590236     0.059387    -3.921305
 H     1.681314    -1.180366    -3.256587
