 102
scf done:    -2581.095067
 C    -1.214959     1.956875    -2.719585
 H    -0.869189     2.027990    -3.762924
 H    -2.267273     1.645675    -2.794376
 C    -1.131009     3.340963    -2.083720
 H    -0.094179     3.712215    -2.045964
 H    -1.724190     4.092859    -2.637515
 H    -1.506404     3.350809    -1.044472
Ir     0.015871     0.654074    -1.559941
 C    -1.598743     0.687854     1.628886
 C    -3.453486     0.777576    -0.570959
 C    -1.911319    -1.743628     0.056871
 C     1.605846    -1.686176     0.747880
 C     3.352293    -0.274266    -1.014644
 C     1.947037     1.163493     1.254652
 P     1.720799    -0.070380    -0.118634
 P    -1.773010     0.102640    -0.105953
 C     1.016752     0.380582    -3.080667
 O     1.552567     0.057570    -4.055296
 C    -1.334648    -0.149507     2.718577
 H    -1.273871    -1.229275     2.583977
 C    -1.659095     2.071497     1.858468
 H    -1.844136     2.752390     1.023395
 C    -1.122561     0.371005     3.995324
 H    -0.907809    -0.277580     4.846826
 C    -1.475101     2.604527     3.128788
 H    -1.529938     3.678940     3.312108
 C    -1.196905     1.743358     4.185125
 F    -0.991484     2.248440     5.399089
 H    -3.196710     1.805733    -0.886574
 C    -4.516748     0.892582     0.524149
 H    -4.114268     1.396457     1.414668
 H    -4.829716    -0.111545     0.852359
 C    -5.732169     1.655826     0.000961
 H    -6.501843     1.719179     0.787388
 H    -5.431700     2.695457    -0.223494
 C    -6.308310     1.017428    -1.258003
 H    -7.151248     1.615390    -1.640652
 H    -6.723364     0.025578    -1.001374
 C    -5.242289     0.845921    -2.334266
 H    -4.907124     1.837813    -2.687280
 H    -5.660547     0.328935    -3.212970
 C    -4.037887     0.076664    -1.801813
 H    -4.362088    -0.939841    -1.522681
 H    -3.272029    -0.041089    -2.582696
 H    -1.009504    -1.994173     0.645689
 C    -1.750903    -2.452639    -1.293412
 H    -0.839780    -2.076613    -1.787075
 H    -2.587790    -2.183633    -1.956728
 C    -1.716826    -3.967753    -1.123585
 H    -1.655177    -4.450364    -2.112500
 H    -0.799405    -4.246783    -0.580505
 C    -2.920813    -4.488585    -0.347966
 H    -2.842188    -5.578149    -0.202099
 H    -3.840693    -4.318945    -0.936949
 C    -3.053645    -3.778995     0.994265
 H    -2.178532    -4.021051     1.625242
 H    -3.941054    -4.140274     1.538968
 C    -3.137935    -2.266806     0.807753
 H    -4.045807    -2.036110     0.227120
 H    -3.259302    -1.763571     1.778960
 C     1.637628    -2.846000    -0.042727
 H     1.747055    -2.758533    -1.127193
 C     1.432081    -1.834141     2.128916
 H     1.401149    -0.958859     2.778009
 C     1.518075    -4.110505     0.521737
 H     1.553820    -5.015524    -0.087226
 C     1.281005    -3.094509     2.707365
 H     1.138724    -3.215553     3.782996
 C     1.329488    -4.219022     1.895693
 F     1.189393    -5.425514     2.440089
 H     3.039070    -0.889245    -1.879348
 C     4.485227    -1.030691    -0.318204
 H     4.124919    -1.981542     0.101255
 H     4.868541    -0.441368     0.529464
 C     5.623341    -1.291949    -1.303249
 H     6.444769    -1.823198    -0.795376
 H     5.260762    -1.968558    -2.098281
 C     6.134014    -0.001834    -1.935793
 H     6.919557    -0.222264    -2.676704
 H     6.610658     0.617462    -1.153892
 C     5.002340     0.793209    -2.578060
 H     4.598016     0.238736    -3.443338
 H     5.379686     1.750835    -2.971754
 C     3.870122     1.046936    -1.588468
 H     4.246243     1.677960    -0.764439
 H     3.052525     1.606873    -2.067950
 H     1.089320     0.945749     1.918381
 C     1.743924     2.596127     0.746000
 H     0.794771     2.656296     0.187296
 H     2.533842     2.847045     0.019718
 C     1.770781     3.603436     1.890333
 H     1.674430     4.625346     1.488967
 H     0.891282     3.434665     2.533396
 C     3.030715     3.477315     2.738546
 H     2.996040     4.183001     3.584319
 H     3.911665     3.759486     2.133595
 C     3.211294     2.049690     3.240799
 H     2.381324     1.793773     3.925068
 H     4.139399     1.959629     3.828353
 C     3.230910     1.060331     2.079354
 H     4.093228     1.295253     1.433847
 H     3.390315     0.034486     2.445110
