 110
scf done:    -2237.616179
 C     0.252915     1.491521     2.613937
 H     0.896659     1.068790     3.405948
 H     0.807427     2.366601     2.236696
 C    -1.051028     1.976292     3.241959
 H    -1.595144     1.156967     3.739483
 H    -0.883004     2.763532     4.000998
 H    -1.740840     2.398466     2.492004
Ir    -0.144100     0.041819     1.079194
 C     0.393703     2.707315    -1.264047
 C     2.684550     2.060057     0.406282
 C     1.970750     0.367685    -1.821569
 C    -0.123734    -2.784959    -1.180559
 C    -2.610829    -2.203470     0.173922
 C    -1.750630    -0.559569    -2.056992
 P    -1.115658    -1.357019    -0.514535
 P     1.218066     1.278415    -0.402322
 C    -0.605875    -1.118376     2.445476
 O    -0.758715    -1.893566     3.290352
 H    -0.285952     2.208916    -1.980390
 C     1.313176     3.641485    -2.051520
 H     1.914183     3.080676    -2.784775
 H     2.027996     4.118617    -1.358693
 C     0.514539     4.731801    -2.762001
 H     1.196800     5.401396    -3.310549
 H    -0.140004     4.264725    -3.520739
 C    -0.340042     5.524386    -1.780222
 H    -0.931089     6.287077    -2.312658
 H     0.322105     6.072741    -1.085787
 C    -1.254247     4.603058    -0.981700
 H    -1.988912     4.144880    -1.666654
 H    -1.835956     5.177712    -0.243174
 C    -0.472865     3.497542    -0.280353
 H     0.171362     3.944794     0.497678
 H    -1.149614     2.809949     0.252355
 H     3.383550     2.393264    -0.378990
 H     2.302989     2.974286     0.890178
 C     3.384973     1.194765     1.448878
 H     2.623357     0.637417     2.018121
 H     4.004689     0.431003     0.952205
 C     4.250924     2.005210     2.401871
 H     3.615901     2.749946     2.915540
 H     4.997295     2.587440     1.829655
 C     4.962834     1.151397     3.441438
 H     4.209634     0.570593     4.002099
 H     5.592596     0.403906     2.926688
 C     5.813108     1.959011     4.408503
 H     6.312907     1.314585     5.147625
 H     5.201177     2.688207     4.963579
 H     6.595717     2.524927     3.877348
 H     1.134072    -0.069976    -2.389839
 H     2.454324     1.097240    -2.492015
 C     2.964748    -0.717965    -1.434088
 H     3.868093    -0.251125    -1.009140
 H     2.539390    -1.339062    -0.626648
 C     3.372156    -1.596865    -2.608580
 H     3.693298    -0.960765    -3.453474
 H     2.487639    -2.149512    -2.976090
 C     4.480458    -2.584564    -2.271695
 H     5.394840    -2.024533    -2.008420
 H     4.204036    -3.141400    -1.359333
 C     4.777485    -3.562782    -3.396079
 H     5.595714    -4.249963    -3.133165
 H     5.068076    -3.036314    -4.319511
 H     3.892157    -4.175633    -3.632682
 H     0.666529    -2.287679    -1.771740
 C    -0.856611    -3.762188    -2.100258
 H    -1.319802    -3.233681    -2.948489
 H    -1.678666    -4.243879    -1.542655
 C     0.087206    -4.845261    -2.618490
 H    -0.463421    -5.548112    -3.264855
 H     0.859476    -4.376751    -3.256165
 C     0.765013    -5.588970    -1.473880
 H     1.464096    -6.345098    -1.866719
 H    -0.000355    -6.141728    -0.899303
 C     1.490572    -4.623399    -0.544332
 H     2.328848    -4.158887    -1.092444
 H     1.938391    -5.165127     0.304295
 C     0.564551    -3.526124    -0.031150
 H    -0.201632    -3.978159     0.624378
 H     1.109880    -2.802545     0.596053
 H    -3.137467    -2.748005    -0.626707
 H    -2.199230    -2.968373     0.854515
 C    -3.566876    -1.302954     0.955560
 H    -2.994677    -0.471386     1.404601
 H    -4.291505    -0.834998     0.269156
 C    -4.316192    -2.041621     2.055031
 H    -3.579683    -2.478063     2.753537
 H    -4.869880    -2.896148     1.623333
 C    -5.276050    -1.151339     2.831151
 H    -4.711985    -0.297786     3.246973
 H    -6.010842    -0.711898     2.132853
 C    -6.003305    -1.878840     3.950215
 H    -6.685931    -1.209455     4.495552
 H    -5.291778    -2.295701     4.680958
 H    -6.601615    -2.718054     3.559641
 H    -0.865693    -0.200694    -2.609839
 H    -2.226537    -1.322188    -2.695299
 C    -2.711677     0.596888    -1.813142
 H    -3.670125     0.204463    -1.437987
 H    -2.319907     1.239087    -1.004780
 C    -2.971665     1.434875    -3.056977
 H    -3.249097     0.774863    -3.899003
 H    -2.031673     1.928575    -3.367454
 C    -4.055345     2.486190    -2.861974
 H    -5.016587     1.980013    -2.665277
 H    -3.836783     3.065556    -1.947925
 C    -4.199831     3.431214    -4.043200
 H    -5.004340     4.164632    -3.882648
 H    -4.429573     2.882079    -4.970538
 H    -3.267778     3.993642    -4.217870
