  94
scf done:    -2826.164408
 C    -1.077887     0.810098    -3.276123
 H    -0.653767     0.261837    -4.135081
 H    -2.049281     0.321821    -3.084438
 C    -1.320489     2.264869    -3.660992
 H    -0.388537     2.776763    -3.950552
 H    -2.019209     2.352137    -4.512865
 H    -1.756310     2.841268    -2.829820
Ir     0.286144     0.594423    -1.611368
 C    -2.930556     1.281526    -0.469655
 O    -2.543499    -1.227897    -1.010397
 O    -1.369011    -0.359619     1.111665
 C     1.959799    -1.259258     0.915396
 O     3.258914     0.741670    -0.334485
 O     1.565930     1.271747     1.503136
 P     1.706808     0.355977     0.122147
 P    -1.628612     0.030875    -0.472724
 C     1.665073     1.092516    -2.794222
 O     2.489933     1.377675    -3.536420
 C    -2.530451     2.597806    -0.214542
 C    -4.279409     0.984329    -0.688721
 C    -4.829140     3.315402    -0.365464
 C    -5.224883     2.005062    -0.636747
 C    -3.482692     3.611441    -0.154886
 H    -1.472355     2.823571    -0.056111
 H    -3.165758     4.635292     0.053951
 H    -5.575896     4.112158    -0.324153
 H    -6.279226     1.776226    -0.808364
 H    -4.578176    -0.044186    -0.893840
 C    -2.094976    -2.470530    -1.393069
 C    -0.936242    -2.639184    -2.145102
 H    -0.351587    -1.754199    -2.426884
 C    -2.897460    -3.558351    -1.015305
 C    -4.158051    -3.336100    -0.238297
 H    -3.966894    -2.770883     0.686642
 H    -4.884225    -2.749734    -0.823765
 H    -4.627999    -4.292090     0.029077
 C    -0.535236    -3.923929    -2.506611
 H     0.376211    -4.056771    -3.094494
 C    -2.470362    -4.833606    -1.395720
 H    -3.076913    -5.695638    -1.105202
 C    -1.298835    -5.025060    -2.127282
 H    -0.990122    -6.034374    -2.408459
 C    -2.318496    -0.716620     2.044693
 C    -3.264342     0.205231     2.491892
 H    -3.263977     1.215803     2.085346
 C    -2.245606    -2.013671     2.576578
 C    -1.182153    -2.965044     2.128115
 H    -1.220191    -3.142863     1.043443
 H    -0.180959    -2.563614     2.341886
 H    -1.282908    -3.933333     2.636175
 C    -4.189398    -0.173072     3.462503
 H    -4.933340     0.548586     3.807352
 C    -3.185275    -2.361154     3.553000
 H    -3.146634    -3.367836     3.977817
 C    -4.155284    -1.461286     3.990160
 H    -4.877196    -1.764650     4.751677
 C     1.787081    -2.392411     0.114717
 C     2.352276    -1.405508     2.250881
 C     2.424661    -3.805246     1.961045
 C     2.588926    -2.677320     2.766765
 C     2.016066    -3.663491     0.635881
 H     1.451820    -2.269527    -0.917801
 H     1.860949    -4.542794     0.006526
 H     2.605845    -4.800732     2.373651
 H     2.901129    -2.789516     3.807652
 H     2.466595    -0.521112     2.878883
 C     4.390431     0.410126     0.370512
 C     4.684849     1.026694     1.585240
 H     3.986712     1.759334     1.991262
 C     5.251803    -0.537372    -0.202529
 C     4.907838    -1.165351    -1.517558
 H     4.694394    -0.400233    -2.279178
 H     5.726805    -1.803231    -1.876364
 H     4.002458    -1.786867    -1.431571
 C     5.853135     0.685817     2.263710
 H     6.084208     1.165417     3.217712
 C     6.418441    -0.855451     0.497681
 H     7.103941    -1.591104     0.068129
 C     6.720699    -0.258719     1.720899
 H     7.639289    -0.528860     2.246611
 C     0.705414     2.316116     1.718556
 C    -0.273957     2.139373     2.695715
 H    -0.349976     1.166047     3.181821
 C     0.857058     3.542307     1.049510
 C     1.891622     3.740158    -0.014684
 H     2.071056     4.809306    -0.191156
 H     2.844929     3.257970     0.241310
 H     1.555250     3.287661    -0.962302
 C    -1.126799     3.186003     3.030108
 H    -1.891489     3.037419     3.795775
 C    -0.014098     4.578966     1.409960
 H     0.093073     5.543780     0.906585
 C    -0.995091     4.414400     2.385042
 H    -1.653871     5.246719     2.642751
