 118
scf done:    -3512.596054
 C    -1.411827     3.145903     0.438603
 H    -1.946800     3.530088    -0.449791
 H    -2.190749     2.654751     1.047645
 C    -0.866252     4.312920     1.255018
 H    -0.170188     4.941236     0.676747
 H    -1.674071     4.976408     1.618040
 H    -0.312975     3.961896     2.142333
Ir     0.011156     1.666437    -0.167858
 C    -1.973482    -0.525727     1.581882
 C    -3.474249     1.077568    -0.460471
 C    -2.066984    -1.271817    -1.212745
 C     1.608941    -1.623271    -0.784530
 C     3.370293     0.583596    -1.035308
 C     2.247752     0.011430     1.590297
 P     1.780727     0.110292    -0.210297
 P    -1.904472     0.188235    -0.106820
 C     1.183722     3.034057    -0.489306
 O     1.879210     3.910096    -0.800333
 C    -2.670461    -1.688059     1.944906
 H    -3.310133    -2.189368     1.218838
 C    -1.193631     0.112837     2.548654
 H    -0.616986     1.000957     2.259718
 C    -2.572451    -2.195038     3.231431
 H    -3.099677    -3.105587     3.523900
 C    -1.099864    -0.378112     3.849606
 H    -0.460359     0.140327     4.563327
 C    -1.781260    -1.547642     4.192777
 O    -1.708993    -2.140712     5.405817
 C    -0.955371    -1.516402     6.407060
 H    -1.346726    -0.512389     6.649113
 H    -1.027672    -2.151408     7.299466
 H     0.106753    -1.416184     6.121612
 C    -3.584979     1.579389    -1.768584
 O    -2.554788     1.270962    -2.565617
 C    -2.467627     1.769043    -3.864113
 H    -1.531064     1.370883    -4.272754
 H    -3.308540     1.425587    -4.492934
 H    -2.435944     2.872450    -3.875483
 C    -4.498874     1.362401     0.453942
 O    -4.335714     0.905449     1.705331
 C    -5.293124     1.173950     2.685555
 H    -4.926185     0.704429     3.607215
 H    -6.276903     0.740946     2.430979
 H    -5.413448     2.258136     2.855975
 C    -5.622224     2.102176     0.054163
 H    -6.420351     2.322443     0.761998
 C    -4.696239     2.326943    -2.176036
 H    -4.767612     2.714837    -3.191751
 C    -5.706310     2.573539    -1.251746
 H    -6.579700     3.156665    -1.553838
 C    -3.208306    -1.976474    -1.370147
 O    -4.329436    -1.657238    -0.663631
 C    -5.498542    -1.363255    -1.389535
 H    -6.281416    -1.147091    -0.651776
 H    -5.358071    -0.473661    -2.025505
 H    -5.826884    -2.210324    -2.016622
 C    -0.797770    -1.721984    -1.891456
 O    -0.448669    -0.728223    -2.806303
 C     0.512587    -1.020099    -3.779398
 H     0.852376    -0.058788    -4.182718
 H     0.093530    -1.620548    -4.609595
 H     1.395505    -1.536363    -3.371004
 C    -0.841665    -3.184618    -2.416725
 H    -0.228517    -3.276911    -3.323909
 C    -3.277546    -3.205380    -2.167291
 H    -4.258859    -3.665480    -2.303228
 C    -2.173293    -3.794693    -2.646914
 H    -2.236585    -4.737845    -3.197681
 C     0.218573    -2.162134    -0.782192
 H    -0.207863    -1.965105     0.211386
 C     2.638767    -2.405880    -1.161242
 H     3.657356    -2.016381    -1.132948
 C     0.019669    -3.640836    -1.199712
 H    -0.568995    -4.229332    -0.478847
 C     2.471386    -3.792977    -1.577032
 H     3.362946    -4.345415    -1.875725
 C     1.255990    -4.386553    -1.566632
 O     0.985475    -5.657397    -1.915012
 C     2.047181    -6.470374    -2.332995
 H     2.807062    -6.581367    -1.539637
 H     1.623051    -7.454921    -2.567304
 H     2.538032    -6.061244    -3.233622
 C     4.640399     0.298756    -0.496983
 O     4.674496    -0.554968     0.545022
 C     5.800693    -0.613930     1.370727
 H     5.513432    -1.218981     2.240677
 H     6.660338    -1.091357     0.867467
 H     6.100380     0.389560     1.718423
 C     3.321024     1.361020    -2.208917
 O     2.111553     1.523577    -2.766839
 C     1.900637     2.536957    -3.709515
 H     0.813890     2.592741    -3.854458
 H     2.387267     2.308434    -4.674673
 H     2.257168     3.510268    -3.335762
 C     4.481409     1.922766    -2.758870
 H     4.424655     2.542555    -3.652814
 C     5.804115     0.858276    -1.036457
 H     6.778007     0.643043    -0.597664
 C     5.708017     1.675664    -2.157337
 H     6.614135     2.113719    -2.583044
 C     2.867861     1.133430     2.179781
 O     3.166795     2.143197     1.346645
 C     3.665832     3.352029     1.841896
 H     3.736018     4.025093     0.979186
 H     2.983479     3.795773     2.586921
 H     4.665756     3.226540     2.293911
 C     1.956235    -1.078841     2.427606
 O     1.311782    -2.123603     1.875154
 C     1.037723    -3.265391     2.633578
 H     0.519700    -3.962848     1.962794
 H     0.376846    -3.044976     3.488086
 H     1.963787    -3.743279     2.998878
 C     2.305942    -1.067002     3.787018
 H     2.087013    -1.927358     4.417887
 C     3.189296     1.166843     3.541526
 H     3.664680     2.044973     3.976556
 C     2.913106     0.056341     4.331697
 H     3.174659     0.069011     5.392755
