  90
scf done:    -2525.358434
 C    -1.131998     1.840024    -2.636063
 H    -1.556352     1.386195    -3.548041
 H    -2.004025     2.194964    -2.061621
 C    -0.256797     3.028715    -3.015740
 H     0.567790     2.735295    -3.685429
 H    -0.834238     3.817251    -3.534001
 H     0.204942     3.502150    -2.132472
Ir     0.018074     0.461650    -1.492577
 C    -1.656623     1.369171     1.544038
 C    -3.422155     0.540160    -0.574857
 C    -1.931465    -1.428900     0.695786
 C     1.602246    -2.015995     0.704932
 C     3.388575    -0.320124    -0.759382
 C     1.927342     0.824937     1.323031
 P     1.683579    -0.353329    -0.062790
 P    -1.722513     0.279361     0.073501
 C     0.856574    -0.056784    -3.060054
 O     1.242066    -0.530916    -4.040519
 C    -1.163758     0.943126     2.781883
 C    -1.964526     2.726532     1.368952
 C    -1.344834     3.186886     3.658168
 C    -1.817824     3.625765     2.421155
 C    -1.009274     1.846294     3.831742
 H    -0.894851    -0.103852     2.928202
 H    -0.617746     1.497127     4.789895
 H    -1.229811     3.893556     4.483697
 H    -2.071562     4.678132     2.272299
 H    -2.323363     3.080603     0.398538
 C    -3.698200     0.075562    -1.866187
 H    -2.881112    -0.327029    -2.471242
 C    -4.470149     1.049607     0.195408
 H    -4.284800     1.404282     1.211810
 C    -4.989790     0.130877    -2.374324
 H    -5.183880    -0.236401    -3.386008
 C    -5.762003     1.108436    -0.324494
 H    -6.569482     1.513441     0.291988
 C    -6.045690     0.654286    -1.615880
 C    -7.430668     0.740875    -2.186317
 H    -8.180877     0.916469    -1.402431
 H    -7.506542     1.568945    -2.910529
 H    -7.702482    -0.181497    -2.721491
 C    -2.680314    -1.739739     1.834681
 H    -3.117067    -0.943597     2.442266
 C    -1.438984    -2.471601    -0.096375
 H    -0.864128    -2.218317    -0.992867
 C    -2.883481    -3.068334     2.198603
 H    -3.458374    -3.296438     3.100570
 C    -1.669600    -3.794409     0.259024
 H    -1.272768    -4.594836    -0.370452
 C    -2.378727    -4.117196     1.421809
 C    -2.564326    -5.548318     1.828777
 H    -3.315925    -5.652191     2.623930
 H    -2.876112    -6.171305     0.976826
 H    -1.616755    -5.968977     2.205470
 C     1.929374    -3.126265    -0.087158
 C     1.089086    -2.233772     1.988284
 C     1.292879    -4.623400     1.699038
 C     0.935952    -3.527855     2.481703
 C     1.784786    -4.418263     0.409638
 H     2.304794    -2.974887    -1.103012
 H     2.055410    -5.271740    -0.216859
 H     1.180329    -5.638017     2.088932
 H     0.529729    -3.677671     3.484671
 H     0.804469    -1.384505     2.610926
 C     3.689800     0.635552    -1.735117
 H     2.893063     1.281740    -2.113607
 C     4.425718    -1.119620    -0.265939
 H     4.225475    -1.861303     0.510520
 C     4.987217     0.773104    -2.217638
 H     5.196872     1.527636    -2.980903
 C     5.720052    -0.982384    -0.759288
 H     6.514139    -1.622290    -0.363939
 C     6.025310    -0.038744    -1.746789
 C     7.413732     0.081512    -2.302299
 H     7.528328    -0.538108    -3.207619
 H     7.645430     1.118240    -2.587019
 H     8.169668    -0.254248    -1.577831
 C     2.642898     0.528199     2.486614
 H     3.054684    -0.472034     2.639692
 C     1.463902     2.132665     1.135567
 H     0.919187     2.373913     0.215744
 C     2.842135     1.505827     3.458525
 H     3.392637     1.253042     4.369153
 C     1.685463     3.108935     2.098120
 H     1.308512     4.121159     1.931640
 C     2.362908     2.809018     3.285752
 C     2.542383     3.854083     4.346036
 H     2.885146     4.807711     3.916716
 H     1.585834     4.056304     4.856818
 H     3.268718     3.540196     5.108825
