  90
scf done:    -4213.349573
 C    -1.125069     1.342286    -3.050769
 H    -1.363027     0.760957    -3.959085
 H    -2.102725     1.648255    -2.645485
 C    -0.334690     2.579971    -3.462653
 H     0.606821     2.314739    -3.968952
 H    -0.909998     3.223166    -4.154103
 H    -0.060389     3.209983    -2.599663
Ir     0.030777     0.205585    -1.646866
 C    -2.148047     1.829698     0.770815
 C    -3.325322    -0.408341    -0.838010
 C    -1.592152    -0.982498     1.267295
 C     1.871859    -1.739413     1.020094
 C     3.405478    -0.030670    -0.682463
 C     1.527543     1.188680     1.087276
 P     1.686167    -0.233591    -0.059953
 P    -1.762689     0.229558    -0.102689
 C     0.937124    -0.416044    -3.130945
 O     1.359840    -0.921572    -4.080462
 H    -1.247440     1.954408     1.402379
 C    -3.383822     1.878628     1.668652
 H    -3.397763     1.039502     2.381375
 H    -4.284853     1.776529     1.041007
 C    -3.455437     3.207687     2.416816
 H    -4.343649     3.221926     3.068942
 H    -2.576444     3.304453     3.080130
 C    -3.483721     4.380936     1.445288
 H    -3.507262     5.335951     1.994156
 H    -4.415660     4.336578     0.853132
 C    -2.283516     4.338155     0.508403
 H    -1.368646     4.512461     1.099731
 H    -2.338072     5.153900    -0.230366
 C    -2.162774     3.000160    -0.214707
 H    -3.012341     2.877255    -0.909625
 H    -1.252327     2.978870    -0.830654
 C    -3.372401    -0.755390    -2.191440
 H    -2.480512    -0.609340    -2.803003
 C    -4.449619    -0.670506    -0.039968
 H    -4.420428    -0.480374     1.033372
 C    -4.522756    -1.304998    -2.752554
 H    -4.553471    -1.573827    -3.809511
 C    -5.606032    -1.213723    -0.587174
 H    -6.479170    -1.415340     0.035271
 C    -5.638819    -1.519976    -1.948374
Cl    -7.074749    -2.198785    -2.634119
 C    -1.328674    -0.634690     2.595250
 H    -1.280426     0.412144     2.893867
 C    -1.665635    -2.343272     0.933840
 H    -1.884166    -2.634256    -0.096719
 C    -1.096229    -1.613838     3.561267
 H    -0.871340    -1.338987     4.593191
 C    -1.455370    -3.329027     1.888501
 H    -1.513158    -4.385557     1.623120
 C    -1.144944    -2.956083     3.197500
Cl    -0.787629    -4.178001     4.370229
 H     0.982886    -1.714599     1.674329
 C     3.134679    -1.778013     1.881592
 H     3.222482    -0.876262     2.507334
 H     4.017900    -1.773339     1.220483
 C     3.166296    -3.035491     2.746127
 H     4.080508    -3.043995     3.361470
 H     2.313604    -3.023783     3.449427
 C     3.089505    -4.290416     1.884877
 H     3.088115    -5.192741     2.517162
 H     3.994994    -4.350778     1.254289
 C     1.851882    -4.267377     0.995990
 H     0.956961    -4.329018     1.637035
 H     1.829220    -5.152438     0.339731
 C     1.776329    -2.998223     0.152569
 H     2.610730    -2.999868    -0.571272
 H     0.849364    -2.969876    -0.441883
 C     3.830246    -0.783357    -1.785070
 H     3.130015    -1.433039    -2.311519
 C     4.334527     0.802954    -0.047677
 H     4.035380     1.395932     0.818914
 C     5.142617    -0.713143    -2.241613
 H     5.465369    -1.300345    -3.102602
 C     5.647654     0.892469    -0.501014
 H     6.366075     1.548230    -0.006541
 C     6.046398     0.129737    -1.596836
Cl     7.677782     0.233334    -2.164759
 C     1.334153     1.089242     2.467572
 H     1.382206     0.119491     2.962965
 C     1.469101     2.460995     0.491606
 H     1.617606     2.552577    -0.588749
 C     1.042355     2.218490     3.233917
 H     0.867953     2.135596     4.308066
 C     1.200836     3.595895     1.245463
 H     1.151771     4.579717     0.776595
 C     0.961761     3.462392     2.614678
Cl     0.526992     4.856678     3.544504
