  62
scf done:    -1758.981149
 C     3.221649     0.822858    -0.266798
 H     4.105041     0.203326    -0.488313
 H     3.222922     1.605356    -1.040036
 C     3.397373     1.459351     1.109081
 H     3.465853     0.701362     1.906019
 H     4.312975     2.077364     1.171696
 H     2.552650     2.119399     1.377730
Ir     1.432447    -0.333187    -0.171738
 C    -1.048369     2.177420     0.482844
 C     1.004705     3.072712    -1.311512
 C    -0.945907     1.147876    -2.220217
 C    -1.913873    -1.785270    -0.242106
 C     0.002180    -3.310822     1.102704
 C    -0.922870    -0.836772     2.316912
 P    -0.357010    -1.536391     0.702049
 P     0.126689     1.533951    -0.773113
 C     2.427655    -1.837565    -0.561383
 O     2.993404    -2.761027    -0.967841
 C    -2.404445     1.824483     0.481182
 C    -0.557924     2.947478     1.546737
 C    -2.747969     2.998713     2.566717
 C    -1.399552     3.355872     2.578195
 C    -3.246661     2.233187     1.514575
 H    -2.812918     1.205728    -0.319456
 H    -4.300843     1.945523     1.495511
 H    -3.407756     3.316731     3.377281
 H    -0.997518     3.953077     3.400118
 H     0.500245     3.220212     1.580687
 H     1.757318     3.286775    -0.536958
 C     1.674277     2.935287    -2.673139
 H     0.940617     2.934260    -3.492032
 H     2.253883     2.003590    -2.746471
 H     0.285732     3.907197    -1.300653
 H     2.363864     3.774484    -2.849900
 H    -1.576338     0.299455    -1.916832
 C    -1.778708     2.285743    -2.791977
 H    -1.153952     3.095331    -3.195438
 H    -2.444384     2.730851    -2.038518
 H    -0.257436     0.731676    -2.972534
 H    -2.409411     1.916974    -3.615648
 C    -1.782370    -2.193412    -1.577576
 C    -3.197620    -1.589126     0.279854
 C    -4.181950    -2.190822    -1.846294
 C    -4.323633    -1.782669    -0.521407
 C    -2.906520    -2.403296    -2.371478
 H    -0.779130    -2.318351    -1.997371
 H    -2.786679    -2.721692    -3.409870
 H    -5.065379    -2.342702    -2.470978
 H    -5.320001    -1.617400    -0.103628
 H    -3.329830    -1.274132     1.316767
 H     0.258818    -3.776706     0.137049
 C     1.114698    -3.531957     2.113822
 H     0.811916    -3.220616     3.124572
 H     2.022069    -2.970753     1.844592
 H    -0.940549    -3.773580     1.438923
 H     1.382084    -4.598360     2.164443
 H    -1.471880    -1.616822     2.871462
 C     0.209460    -0.250279     3.149875
 H     0.764246     0.504264     2.571949
 H     0.935430    -1.011719     3.466483
 H    -1.643654    -0.040812     2.077995
 H    -0.190553     0.236963     4.052226
