  90
scf done:    -2772.236147
 C    -1.263643     1.835070    -2.642261
 H    -1.442531     1.447550    -3.660930
 H    -2.266421     1.929627    -2.195770
 C    -0.625075     3.215472    -2.757367
 H     0.332423     3.179069    -3.300582
 H    -1.279610     3.928183    -3.292657
 H    -0.409558     3.662417    -1.772232
Ir     0.021824     0.545076    -1.507036
 C    -2.312419     1.334648     1.156755
 C    -3.243338    -0.596566    -0.944553
 C    -1.478865    -1.441784     1.042603
 C     2.026893    -1.759801     0.705133
 C     3.403518     0.417957    -0.532039
 C     1.410488     1.035501     1.415093
 P     1.707420    -0.072254    -0.016060
 P    -1.762378     0.016138    -0.040395
 C     1.001281     0.412728    -3.066414
 O     1.486402     0.210766    -4.096004
 H    -1.438242     1.388360     1.834157
 C    -3.562853     1.061177     1.991521
 H    -3.506464     0.081091     2.490106
 H    -4.437605     1.026488     1.320831
 C    -3.779463     2.164848     3.023801
 H    -4.681652     1.948732     3.618630
 H    -2.931286     2.173489     3.732881
 C    -3.891742     3.528583     2.353902
 H    -4.018304     4.320867     3.109098
 H    -4.800457     3.547552     1.725507
 C    -2.671032     3.809505     1.487223
 H    -1.786096     3.906155     2.139671
 H    -2.779585     4.772894     0.963481
 C    -2.418866     2.698503     0.472425
 H    -3.243311     2.674075    -0.261801
 H    -1.501041     2.900431    -0.098176
 C    -3.235998    -0.644215    -2.342722
 H    -2.355285    -0.280034    -2.874467
 C    -4.344003    -1.137635    -0.260984
 H    -4.347059    -1.184334     0.828281
 C    -4.314804    -1.170318    -3.049485
 H    -4.316217    -1.211140    -4.140087
 C    -5.430431    -1.660639    -0.952739
 H    -6.291629    -2.082897    -0.431963
 C    -5.404691    -1.660724    -2.343838
 F    -6.440843    -2.163287    -3.008673
 C    -1.430520    -2.702181     0.426874
 H    -1.610501    -2.782935    -0.647971
 C    -1.259754    -1.364148     2.421542
 H    -1.302248    -0.403826     2.934784
 C    -1.155137    -3.849497     1.159311
 H    -1.120372    -4.833395     0.688705
 C    -0.964174    -2.505672     3.167844
 H    -0.781275    -2.454390     4.242770
 C    -0.907075    -3.733018     2.523497
 F    -0.600949    -4.824041     3.221373
 H     1.138400    -1.963065     1.328196
 C     3.286966    -1.878856     1.563083
 H     3.290130    -1.137966     2.377633
 H     4.166359    -1.644969     0.939414
 C     3.434918    -3.291155     2.122408
 H     4.346008    -3.357269     2.738945
 H     2.584794    -3.512887     2.793596
 C     3.472858    -4.320906     0.999567
 H     3.556385    -5.339430     1.411678
 H     4.379455    -4.154929     0.389926
 C     2.238481    -4.208086     0.112955
 H     1.350313    -4.488938     0.703337
 H     2.296367    -4.921585    -0.724994
 C     2.048350    -2.793292    -0.424957
 H     2.880030    -2.556733    -1.112439
 H     1.123355    -2.713045    -1.017802
 C     4.250495     1.161554     0.300002
 H     3.893166     1.510863     1.270710
 C     3.899055    -0.022851    -1.766828
 H     3.261033    -0.592957    -2.443196
 C     5.552285     1.466941    -0.088266
 H     6.216895     2.051865     0.550110
 C     5.201690     0.264339    -2.163040
 H     5.592089    -0.071928    -3.125061
 C     6.012545     1.010977    -1.317015
 F     7.255928     1.298401    -1.693061
 C     1.241073     2.399207     1.114422
 H     1.374535     2.738010     0.082575
 C     1.230409     0.615099     2.735831
 H     1.358252    -0.434146     3.002135
 C     0.890061     3.313638     2.098881
 H     0.756254     4.373015     1.873744
 C     0.856911     1.519678     3.731862
 H     0.697962     1.200952     4.763762
 C     0.684216     2.855232     3.396734
 F     0.298487     3.718922     4.333413
