 114
scf done:    -2689.740462
 C    -1.586041     2.662735    -1.596823
 H    -1.580950     2.779746    -2.695673
 H    -2.585516     2.262821    -1.366294
 C    -1.446909     4.034642    -0.945494
 H    -0.518556     4.540919    -1.253366
 H    -2.287634     4.707073    -1.200167
 H    -1.401704     3.966134     0.152967
Ir     0.013864     1.351919    -0.993948
 C    -2.915982     0.081300     0.915279
 C    -2.586101    -0.407166    -2.097397
 C    -1.275417    -2.008063    -0.192559
 C     2.229364    -1.467179    -0.140058
 C     3.465288     1.084537    -1.042564
 C     2.283893     0.845173     1.609603
 P     1.975810     0.369483    -0.163518
 P    -1.684629    -0.220464    -0.465768
 C     0.976638     2.380598    -2.181495
 O     1.490804     2.959495    -3.039484
 H    -2.241351     0.132806     1.789384
 C    -3.907254    -1.054751     1.194122
 H    -3.373234    -2.005686     1.334922
 H    -4.579541    -1.190592     0.334433
 C    -4.743364    -0.762907     2.436647
 H    -5.464224    -1.581093     2.596378
 H    -4.085323    -0.749317     3.324880
 C    -5.462962     0.574539     2.325505
 H    -6.055096     0.774252     3.233355
 H    -6.181036     0.531308     1.485907
 C    -4.466317     1.698803     2.079404
 H    -3.807421     1.792318     2.961194
 H    -4.983127     2.666986     1.977382
 C    -3.611194     1.441794     0.842533
 H    -4.253964     1.485160    -0.051438
 H    -2.860955     2.236647     0.729486
 H    -2.641441     0.606484    -2.511318
 H    -1.855498    -0.952382    -2.715624
 C    -3.928873    -1.067685    -2.116545
 C    -4.071646    -2.458754    -2.200153
 H    -3.188361    -3.089047    -2.330549
 C    -5.087242    -0.287457    -2.029365
 H    -4.986770     0.801800    -2.008162
 C    -5.334085    -3.042144    -2.132671
 H    -5.434532    -4.128534    -2.195330
 C    -6.362837    -0.854001    -1.954273
 C    -7.574383     0.018902    -1.801038
 H    -8.497968    -0.520946    -2.052883
 H    -7.671269     0.374482    -0.761354
 H    -7.511159     0.910430    -2.442507
 C    -6.471016    -2.248747    -1.994841
 H    -7.458057    -2.715416    -1.937726
 H    -2.161318    -2.592566    -0.482951
 H    -0.502055    -2.230070    -0.947958
 C    -0.810729    -2.474246     1.160686
 C    -0.325320    -1.607398     2.142791
 H    -0.295375    -0.535886     1.941470
 C    -0.809925    -3.847706     1.434378
 H    -1.191640    -4.537303     0.674721
 C     0.153024    -2.102064     3.354206
 H     0.528906    -1.409183     4.111518
 C    -0.326005    -4.366687     2.638289
 C    -0.289229    -5.847935     2.878166
 H    -1.033223    -6.375946     2.264941
 H     0.701252    -6.259866     2.621667
 H    -0.478642    -6.090794     3.933919
 C     0.155627    -3.470998     3.601544
 H     0.533297    -3.853117     4.553708
 H     1.292200    -1.796902     0.333243
 C     3.355962    -2.051133     0.715181
 H     3.296032    -1.665026     1.744160
 H     4.338866    -1.751934     0.321248
 C     3.257671    -3.574977     0.736656
 H     4.082974    -3.995607     1.334083
 H     2.319947    -3.868120     1.243227
 C     3.273243    -4.155844    -0.673039
 H     3.186904    -5.254297    -0.639209
 H     4.248864    -3.934215    -1.143954
 C     2.160207    -3.562884    -1.530589
 H     1.184206    -3.874200    -1.114830
 H     2.205045    -3.964244    -2.556308
 C     2.231241    -2.038974    -1.558553
 H     3.152327    -1.733857    -2.080939
 H     1.393249    -1.608883    -2.134006
 H     3.246351     0.964329    -2.113461
 H     3.393444     2.165019    -0.841253
 C     4.829931     0.552455    -0.730988
 C     5.531917     0.929189     0.422595
 H     5.116404     1.682388     1.094613
 C     5.439547    -0.360402    -1.599289
 H     4.926404    -0.627191    -2.527864
 C     6.766334     0.357838     0.717109
 H     7.299947     0.658682     1.622020
 C     6.675090    -0.951591    -1.318608
 C     7.259506    -1.968674    -2.255528
 H     6.728919    -2.931800    -2.169489
 H     7.173671    -1.645287    -3.303849
 H     8.321037    -2.154945    -2.040524
 C     7.329069    -0.588513    -0.136886
 H     8.296505    -1.036417     0.105420
 H     1.754514     0.101755     2.221637
 H     3.353964     0.738281     1.836938
 C     1.778375     2.227082     1.903958
 C     2.568127     3.357907     1.675909
 H     3.593173     3.246171     1.314779
 C     0.474558     2.413809     2.380212
 H    -0.150875     1.537986     2.576151
 C     2.057652     4.633538     1.908304
 H     2.683972     5.509536     1.723177
 C    -0.049620     3.683033     2.634099
 C    -1.451161     3.851128     3.143380
 H    -1.817454     2.933428     3.624771
 H    -1.519292     4.671654     3.872774
 H    -2.144851     4.089553     2.319977
 C     0.760518     4.796937     2.382912
 H     0.370302     5.801108     2.569421
