  82
scf done:    -2669.005116
 C     1.018766    -2.255331    -2.513340
 H     0.606628    -2.667805    -3.447555
 H     1.943922    -1.727299    -2.794856
 C     1.334284    -3.398327    -1.553642
 H     0.426758    -3.930196    -1.226131
 H     2.003196    -4.149749    -2.013737
 H     1.836948    -3.044778    -0.637509
Ir    -0.348519    -0.924865    -1.558289
 C     1.484214    -0.126789     1.453393
 O     2.882766    -0.488942    -0.850908
 O     1.358392     1.598449    -0.633681
 C    -1.912741     1.836796     0.232225
 O    -3.444114    -0.093601    -0.907549
 O    -2.077889    -0.558516     1.235418
 P    -1.910661     0.097886    -0.284790
 P     1.381099    -0.031991    -0.362420
 C    -1.494483    -1.134170    -3.031906
 O    -2.124199    -1.144422    -3.991129
 C     0.915437     0.881349     2.239200
 C     2.043709    -1.252630     2.071438
 C     1.537413    -0.319727     4.240450
 C     2.080600    -1.340034     3.459522
 C     0.942497     0.783105     3.628773
 H     0.438358     1.738539     1.761436
 H     0.496306     1.575247     4.234566
 H     1.568254    -0.390217     5.330429
 H     2.533857    -2.213494     3.933248
 H     2.463008    -2.062564     1.470713
 C     4.072981    -0.641463    -0.187099
 C     4.567427     0.292358     0.723238
 H     4.000379     1.193194     0.956982
 C     4.800932    -1.792150    -0.492200
 H     4.382252    -2.499442    -1.210475
 C     5.798781     0.058765     1.332346
 H     6.184082     0.790659     2.045962
 C     6.031903    -2.010080     0.120298
 H     6.600834    -2.910898    -0.121678
 C     6.534813    -1.087336     1.037594
 H     7.499536    -1.260251     1.519367
 C     2.420959     2.461369    -0.625100
 C     3.383238     2.393195    -1.634173
 H     3.289731     1.629870    -2.407513
 C     2.500574     3.435742     0.370151
 H     1.722997     3.487637     1.132573
 C     4.450494     3.286465    -1.620351
 H     5.210952     3.224907    -2.402134
 C     3.570499     4.329439     0.367460
 H     3.634927     5.091841     1.147445
 C     4.552313     4.252574    -0.619208
 H     5.392828     4.949792    -0.612732
 C    -1.386080     2.764319    -0.672795
 C    -2.403690     2.267038     1.471244
 C    -1.834809     4.543698     0.893900
 C    -2.361645     3.619530     1.798235
 C    -1.349972     4.117263    -0.342118
 H    -0.978747     2.412023    -1.624082
 H    -0.929190     4.838120    -1.046662
 H    -1.801014     5.604143     1.156181
 H    -2.745554     3.956473     2.764138
 H    -2.808082     1.535664     2.172819
 C    -4.555979     0.412948    -0.280511
 C    -5.171178    -0.309045     0.742111
 H    -4.756434    -1.272804     1.042280
 C    -5.065565     1.644807    -0.689488
 H    -4.558708     2.187084    -1.489459
 C    -6.305773     0.214448     1.359030
 H    -6.790871    -0.349909     2.159055
 C    -6.200236     2.157933    -0.066498
 H    -6.599882     3.123345    -0.385731
 C    -6.821698     1.447232     0.960231
 H    -7.711102     1.852773     1.447623
 C    -1.834453    -1.885472     1.473904
 C    -1.207727    -2.213256     2.674115
 H    -0.923513    -1.408865     3.353804
 C    -2.204168    -2.883173     0.567892
 H    -2.712268    -2.618076    -0.360964
 C    -0.934435    -3.547032     2.963992
 H    -0.434148    -3.799590     3.902065
 C    -1.917210    -4.214265     0.867654
 H    -2.198717    -4.993089     0.155140
 C    -1.281436    -4.552227     2.061113
 H    -1.059075    -5.597067     2.288094
