 102
scf done:    -3054.913368
 C    -1.110107     1.486808    -3.173527
 H    -1.573347     0.927205    -4.004516
 H    -1.950948     1.982255    -2.660316
 C    -0.166335     2.544190    -3.734680
 H     0.636923     2.097975    -4.343142
 H    -0.697029     3.272827    -4.376266
 H     0.326159     3.124827    -2.936146
Ir    -0.028462     0.232717    -1.834717
 C    -1.530714     1.846166     0.975363
 C    -3.420100     0.734431    -0.878322
 C    -2.014358    -1.052178     0.728100
 C     1.398674    -1.847316     0.849663
 C     3.275758    -0.816564    -1.054812
 C     2.084195     0.961049     0.753848
 P     1.627572    -0.456761    -0.320588
 P    -1.726360     0.481872    -0.221212
 C     0.702651    -0.603948    -3.313412
 O     1.003179    -1.261297    -4.215861
 C    -1.741696     3.156014     0.507888
 H    -2.138309     3.315299    -0.498713
 C    -0.996907     1.683807     2.254130
 H    -0.802250     0.681264     2.637404
 C    -1.444463     4.252464     1.298087
 H    -1.604523     5.271108     0.939899
 C    -0.684287     2.780225     3.057882
 H    -0.250773     2.609592     4.043141
 C    -0.903473     4.075687     2.580684
 O    -0.619680     5.199777     3.263251
 C     0.048318     5.092879     4.490149
 H     1.031594     4.609091     4.366681
 H     0.199044     6.117068     4.854356
 H    -0.545886     4.535854     5.236000
 C    -4.416952     1.427833    -0.178022
 H    -4.175697     1.934007     0.759801
 C    -3.766387     0.088298    -2.066238
 H    -2.993264    -0.454249    -2.617603
 C    -5.714797     1.485598    -0.663250
 H    -6.497414     2.029016    -0.130435
 C    -5.067302     0.132118    -2.561225
 H    -5.298149    -0.379967    -3.495442
 C    -6.052088     0.838303    -1.860109
 O    -7.335084     0.949291    -2.256147
 C    -7.730323     0.325983    -3.445654
 H    -7.591707    -0.768804    -3.402118
 H    -8.798268     0.543033    -3.575162
 H    -7.178404     0.717819    -4.318245
 C    -1.677449    -2.254994     0.089798
 H    -1.165061    -2.204224    -0.876805
 C    -2.671046    -1.109536     1.957968
 H    -2.991162    -0.190278     2.454295
 C    -1.965233    -3.473864     0.675577
 H    -1.699782    -4.412253     0.186803
 C    -2.926986    -2.332839     2.579113
 H    -3.413468    -2.344672     3.554751
 C    -2.563617    -3.523865     1.940405
 O    -2.740382    -4.755678     2.461855
 C    -3.148510    -4.868759     3.796293
 H    -4.160029    -4.456327     3.956477
 H    -3.167048    -5.941125     4.029806
 H    -2.438969    -4.367057     4.476752
 C     0.936622    -1.644309     2.158094
 H     0.828298    -0.628647     2.540556
 C     1.516370    -3.164931     0.396506
 H     1.855646    -3.358319    -0.625046
 C     0.605507    -2.710059     2.977996
 H     0.230306    -2.549309     3.990134
 C     1.194074    -4.248378     1.212677
 H     1.290861    -5.259769     0.817254
 C     0.718791    -4.024150     2.509745
 O     0.335222    -4.993781     3.364756
 C     0.252460    -6.310623     2.893685
 H     1.236724    -6.699925     2.579685
 H    -0.114238    -6.920066     3.729677
 H    -0.459102    -6.391678     2.054494
 C     4.228050    -1.640571    -0.434646
 H     3.974595    -2.172572     0.484982
 C     3.649343    -0.141056    -2.218033
 H     2.928267     0.521480    -2.704227
 C     5.494147    -1.800693    -0.976084
 H     6.235445    -2.448847    -0.504662
 C     4.920748    -0.285743    -2.769619
 H     5.167911     0.257210    -3.681962
 C     5.852798    -1.126342    -2.151768
 O     7.101652    -1.344578    -2.607555
 C     7.512606    -0.700965    -3.781020
 H     7.492545     0.398221    -3.675790
 H     8.545507    -1.019952    -3.970048
 H     6.887357    -0.984873    -4.645834
 C     1.664210     2.247303     0.385470
 H     1.028557     2.363015    -0.498933
 C     2.918134     0.829406     1.866169
 H     3.290442    -0.156127     2.156558
 C     2.038143     3.360300     1.122016
 H     1.702900     4.361689     0.847967
 C     3.291784     1.936792     2.625291
 H     3.935851     1.794698     3.493426
 C     2.843407     3.210571     2.257470
 O     3.131894     4.339996     2.942331
 C     4.023883     4.265844     4.018856
 H     5.006970     3.870396     3.709009
 H     4.154098     5.289962     4.391502
 H     3.632575     3.636102     4.838195
