  70
scf done:    -1987.879411
 C    -3.756738     0.382550     0.697435
 H    -4.612748    -0.299474     0.572846
 H    -3.760012     0.650241     1.764246
 C    -3.994988     1.633499    -0.144422
 H    -4.069464     1.397172    -1.218150
 H    -4.928191     2.157522     0.136670
 H    -3.177531     2.370805    -0.042859
Ir    -1.934705    -0.472522    -0.006028
 C     0.532843     2.012629     0.746082
 C    -1.570487     1.923823     2.698350
 C     0.364153    -0.217383     2.574993
 C     1.474016    -1.548685    -0.762931
 C    -0.435376    -2.233303    -2.689490
 C     0.340524     0.551020    -2.403651
 P    -0.130279    -0.932413    -1.403276
 P    -0.672316     0.847832     1.485280
 C    -2.864249    -1.994672    -0.478941
 O    -3.385226    -3.017336    -0.626586
 C     0.076064     3.216245     0.182367
 H    -0.978552     3.492899     0.265604
 C     1.883444     1.691735     0.591063
 H     2.278545     0.754601     0.985987
 C     0.933927     4.060774    -0.503045
 H     0.580034     4.994067    -0.944861
 C     2.760101     2.530912    -0.098900
 H     3.804492     2.234579    -0.199555
 C     2.288035     3.724588    -0.653830
 O     3.046939     4.598998    -1.340867
 C     4.401209     4.305011    -1.539876
 H     4.538251     3.367219    -2.107201
 H     4.821996     5.135391    -2.120680
 H     4.949148     4.224004    -0.584540
 H    -2.326143     2.476770     2.119094
 C    -2.238215     1.147492     3.826834
 H    -1.505174     0.766895     4.552319
 H    -2.805989     0.285797     3.447591
 H    -0.860390     2.667963     3.092702
 H    -2.939327     1.793867     4.376256
 H     0.997137    -0.813035     1.901254
 C     1.194006     0.477745     3.644620
 H     0.568678     1.002074     4.381095
 H     1.883636     1.218972     3.216119
 H    -0.342625    -0.938832     3.014445
 H     1.799081    -0.259756     4.194752
 C     2.731720    -1.098442    -1.191843
 H     2.808347    -0.322801    -1.956519
 C     1.432758    -2.545902     0.215923
 H     0.458244    -2.893338     0.574309
 C     3.899209    -1.612861    -0.646032
 H     4.881414    -1.261566    -0.968699
 C     2.596547    -3.084542     0.763179
 H     2.518586    -3.860451     1.525070
 C     3.843667    -2.611743     0.336756
 O     5.026145    -3.049323     0.809169
 C     5.033873    -4.052286     1.786727
 H     4.561003    -4.982143     1.424867
 H     6.086474    -4.257065     2.019238
 H     4.520889    -3.729814     2.710061
 H    -0.633074    -3.156218    -2.119661
 C    -1.575996    -1.944532    -3.650858
 H    -1.328300    -1.122397    -4.338689
 H    -2.496437    -1.670266    -3.114105
 H     0.512249    -2.391503    -3.230982
 H    -1.796972    -2.831260    -4.264358
 H     0.891530     0.215820    -3.298969
 C    -0.845508     1.429380    -2.778461
 H    -1.408208     1.723806    -1.879788
 H    -1.552049     0.917300    -3.446093
 H     1.043932     1.132211    -1.788817
 H    -0.501362     2.345837    -3.281924
