 114
scf done:    -2689.739631
 C    -0.969582     0.213367    -3.583134
 H    -1.243125    -0.703169    -4.137910
 H    -1.934260     0.672728    -3.314494
 C    -0.232695     1.163440    -4.522256
 H     0.686249     0.710200    -4.927019
 H    -0.855228     1.463396    -5.385864
 H     0.075912     2.091224    -4.012616
Ir     0.204248    -0.325589    -1.863805
 C    -2.270512     1.977044    -0.429541
 C    -3.173218    -0.662014    -1.417528
 C    -1.661728    -0.389393     1.203568
 C     1.444689    -2.330387     0.771422
 C     3.465078    -0.768060    -0.860234
 C     1.965769     0.469165     1.257117
 P     1.735377    -0.720265    -0.138882
 P    -1.728987     0.201903    -0.578881
 C     1.271539    -1.235138    -3.067170
 O     1.834610    -1.912592    -3.815433
 H    -1.646037     2.335921     0.405421
 C    -3.735110     2.206437    -0.048484
 H    -4.035621     1.579296     0.801628
 H    -4.377603     1.921995    -0.900648
 C    -3.972884     3.679598     0.272641
 H    -5.031671     3.839985     0.533041
 H    -3.390454     3.943367     1.173656
 C    -3.564865     4.580500    -0.887830
 H    -3.690375     5.640947    -0.614855
 H    -4.244489     4.397648    -1.740030
 C    -2.130753     4.310303    -1.331141
 H    -1.433506     4.615273    -0.529859
 H    -1.879325     4.922756    -2.212467
 C    -1.905921     2.834023    -1.641974
 H    -2.527771     2.541642    -2.505600
 H    -0.864817     2.648214    -1.942706
 H    -3.810733     0.132880    -1.826767
 H    -2.709415    -1.165793    -2.275358
 C    -3.999918    -1.623136    -0.625056
 C    -5.288234    -1.268068    -0.211233
 H    -5.670255    -0.276396    -0.465709
 C    -3.502943    -2.907056    -0.314471
 C    -2.179942    -3.376852    -0.846714
 H    -1.386263    -2.610835    -0.808439
 H    -2.269135    -3.645419    -1.913188
 H    -1.830979    -4.270541    -0.311024
 C    -6.079650    -2.143311     0.527132
 H    -7.082291    -1.842908     0.839830
 C    -4.299815    -3.764794     0.452592
 H    -3.913321    -4.755376     0.708227
 C    -5.575003    -3.393775     0.875927
 H    -6.176096    -4.087322     1.468617
 H    -1.817987    -1.476411     1.146677
 H    -0.608489    -0.245848     1.469664
 C    -2.558550     0.198745     2.255966
 C    -3.765233    -0.447026     2.553255
 H    -3.996698    -1.386409     2.051172
 C    -2.219863     1.370911     2.968013
 C    -0.874353     2.033386     2.865054
 H    -0.443880     2.031568     1.856558
 H    -0.146207     1.525701     3.521497
 H    -0.923066     3.080573     3.194466
 C    -4.673816     0.083239     3.462488
 H    -5.612024    -0.440785     3.659092
 C    -3.152703     1.897647     3.870208
 H    -2.899854     2.816419     4.406850
 C    -4.376695     1.279873     4.109354
 H    -5.083978     1.721617     4.815293
 H     0.340768    -2.336777     0.806705
 C     1.935159    -2.480070     2.212913
 H     1.558411    -1.654488     2.835417
 H     3.033717    -2.419543     2.255928
 C     1.472576    -3.808825     2.806922
 H     1.861930    -3.916019     3.832342
 H     0.370567    -3.799514     2.893139
 C     1.894474    -4.993845     1.946605
 H     1.531508    -5.936757     2.386551
 H     2.997890    -5.061473     1.936182
 C     1.388412    -4.841512     0.517490
 H     0.284536    -4.875200     0.516849
 H     1.725190    -5.684424    -0.107093
 C     1.846964    -3.523823    -0.097597
 H     2.944858    -3.551617    -0.210760
 H     1.430715    -3.402935    -1.111118
 H     3.539644    -1.739144    -1.373759
 H     3.423881    -0.013967    -1.656760
 C     4.632944    -0.535374     0.051168
 C     5.073871    -1.561120     0.896707
 H     4.596444    -2.540721     0.826891
 C     5.304045     0.707839     0.083787
 C     4.989102     1.811380    -0.885273
 H     3.940044     2.132987    -0.834415
 H     5.183085     1.491963    -1.922304
 H     5.614643     2.691875    -0.686308
 C     6.103777    -1.368935     1.812461
 H     6.420113    -2.189449     2.460795
 C     6.333599     0.887674     1.016663
 H     6.846168     1.853053     1.048179
 C     6.726653    -0.125712     1.886683
 H     7.532253     0.049584     2.603599
 H     1.137046     0.307229     1.965975
 H     2.868797     0.142108     1.792569
 C     2.059826     1.934985     0.930284
 C     1.505464     2.472634    -0.235791
 H     1.036294     1.791254    -0.963127
 C     2.702725     2.796664     1.846093
 C     3.323750     2.266562     3.105303
 H     4.143556     1.563338     2.881730
 H     2.592790     1.722857     3.725281
 H     3.738590     3.082078     3.713348
 C     1.573296     3.837161    -0.509452
 H     1.139687     4.227001    -1.433343
 C     2.763091     4.163065     1.555447
 H     3.263677     4.829885     2.263057
 C     2.204931     4.688684     0.391647
 H     2.269659     5.760613     0.190026
