 102
scf done:    -3055.056253
 C     1.450340     1.848219     2.678380
 H     1.004809     2.233849     3.608849
 H     2.089984     1.010062     2.999210
 C     2.304057     2.925808     2.017236
 H     1.701964     3.798182     1.715758
 H     3.099154     3.292585     2.692851
 H     2.804662     2.550959     1.108601
Ir    -0.084945     1.261477     1.283466
 C     2.829921    -0.258821     0.075751
 O     1.803935    -1.339099     2.242277
 O     0.531632    -1.759525     0.044290
 C    -2.918889    -0.139369    -0.495407
 O    -2.174644     2.305380    -1.062057
 O    -0.570253     0.396674    -1.781000
 P    -1.456041     0.923101    -0.469353
 P     1.257273    -0.544699     0.904416
 C    -1.199445     2.527910     2.122929
 O    -1.902386     3.209276     2.722112
 C     4.077682    -0.403785     0.697184
 H     4.130642    -0.787908     1.717484
 C     2.767741     0.258907    -1.221918
 H     1.793733     0.402033    -1.698724
 C     5.237082    -0.056321     0.023304
 H     6.218596    -0.158565     0.489587
 C     3.928159     0.603325    -1.908426
 H     3.849602     0.998021    -2.921336
 C     5.173884     0.447075    -1.285337
 O     6.348926     0.756874    -1.857639
 C     6.354920     1.283062    -3.156821
 H     5.802726     2.237321    -3.213968
 H     7.405229     1.464235    -3.416806
 H     5.922701     0.576670    -3.886853
 C     1.017515    -1.575701     3.345621
 C    -0.369754    -1.652322     3.263434
 H    -0.870374    -1.512820     2.303774
 C     1.673664    -1.750256     4.562202
 H     2.762175    -1.682072     4.597140
 C    -1.134277    -1.884196     4.412170
 C    -2.631348    -1.902869     4.311811
 H    -3.093995    -2.315006     5.219418
 H    -3.019891    -0.881328     4.167269
 H    -2.969514    -2.496299     3.448834
 C     0.916625    -2.000065     5.702088
 H     1.419746    -2.139887     6.661817
 C    -0.475167    -2.062393     5.631839
 H    -1.058187    -2.250049     6.536977
 C     1.051876    -2.949521    -0.396113
 C     2.259162    -3.477952     0.054092
 H     2.834811    -2.952944     0.814927
 C     0.282191    -3.639609    -1.337600
 H    -0.663687    -3.211918    -1.672627
 C     2.732382    -4.694338    -0.454952
 C     4.039600    -5.243035     0.038884
 H     4.321056    -6.159934    -0.497152
 H     4.850697    -4.509193    -0.089101
 H     3.986891    -5.482352     1.113123
 C     0.747583    -4.851072    -1.834818
 H     0.148735    -5.393952    -2.570271
 C     1.967941    -5.374158    -1.405927
 H     2.327062    -6.324507    -1.808476
 C    -2.739928    -1.493586    -0.166203
 H    -1.734810    -1.867648     0.041246
 C    -4.209657     0.331079    -0.737611
 H    -4.360686     1.384000    -0.981235
 C    -3.821566    -2.354545    -0.107597
 H    -3.694831    -3.410568     0.137913
 C    -5.307104    -0.525904    -0.671093
 H    -6.303735    -0.128952    -0.864748
 C    -5.117876    -1.877491    -0.359504
 O    -6.108626    -2.782043    -0.274071
 C    -7.426802    -2.370089    -0.509094
 H    -7.556676    -1.975825    -1.532228
 H    -8.059630    -3.258164    -0.387984
 H    -7.750444    -1.599906     0.212829
 C    -1.511688     3.506353    -0.994797
 C    -0.158316     3.603442    -1.312832
 H     0.379847     2.714132    -1.645407
 C    -2.230601     4.626920    -0.583677
 H    -3.285464     4.519815    -0.326032
 C     0.510881     4.826923    -1.199781
 C     1.978573     4.900684    -1.504593
 H     2.194282     4.527138    -2.518041
 H     2.355478     5.930320    -1.433040
 H     2.551660     4.277628    -0.799555
 C    -1.571693     5.848456    -0.486888
 H    -2.123102     6.733094    -0.159764
 C    -0.212502     5.948957    -0.784696
 H     0.295213     6.912148    -0.690545
 C    -1.021098    -0.088236    -2.978370
 C    -0.261443    -1.104883    -3.556046
 H     0.619288    -1.465013    -3.021135
 C    -2.153149     0.409729    -3.624335
 H    -2.724202     1.223520    -3.178581
 C    -0.627710    -1.663922    -4.782773
 C     0.209784    -2.748394    -5.396444
 H     0.637692    -3.406826    -4.625783
 H    -0.376028    -3.363921    -6.094096
 H     1.053493    -2.320752    -5.963522
 C    -2.522226    -0.151219    -4.845016
 H    -3.411591     0.224626    -5.356763
 C    -1.776707    -1.178637    -5.418841
 H    -2.087191    -1.608997    -6.374448
