 106
scf done:    -2459.270859
 C    -1.003069    -3.547762    -0.893321
 H    -0.830975    -4.505921    -0.376847
 H    -2.097011    -3.431692    -0.905972
 C    -0.486602    -3.667135    -2.324062
 H     0.604503    -3.816991    -2.355309
 H    -0.947185    -4.514730    -2.866272
 H    -0.695420    -2.763167    -2.923207
Ir     0.024409    -1.932788     0.065157
 C    -0.980101     0.851848    -1.884945
 C    -3.117889    -1.043624    -1.504409
 C    -2.288103     0.629107     0.692591
 C     0.971266     1.101805     1.741793
 C     3.018780    -0.885254     1.586468
 C     2.295872     0.583104    -0.785117
 P     1.541924    -0.265842     0.663686
 P    -1.604220    -0.381464    -0.681650
 C     0.826720    -3.191877     1.147183
 O     1.227528    -3.947037     1.927269
 C    -0.453982     0.378674    -3.100591
 H    -0.519575    -0.686066    -3.340448
 C    -0.841021     2.212166    -1.601615
 H    -1.216901     2.623271    -0.664126
 C     0.191232     1.226052    -3.984895
 H     0.611059     0.857047    -4.922477
 C    -0.181509     3.077736    -2.478004
 H    -0.082051     4.129699    -2.209084
 C     0.349409     2.585623    -3.673875
 O     1.032022     3.325559    -4.567094
 C     1.265133     4.677920    -4.286788
 H     1.848272     4.807505    -3.357830
 H     1.844599     5.078089    -5.128069
 H     0.323453     5.247664    -4.199131
 H    -2.767475    -1.717257    -2.303564
 H    -3.642432    -0.207942    -1.992465
 C    -4.023807    -1.798905    -0.534850
 H    -3.403070    -2.362235     0.181982
 H    -4.604308    -1.079824     0.068709
 C    -4.995620    -2.768176    -1.210412
 H    -4.386653    -3.484633    -1.793512
 C    -5.768238    -3.558834    -0.161885
 H    -5.087149    -4.103663     0.509948
 H    -6.442173    -4.293910    -0.628575
 H    -6.386229    -2.888634     0.459310
 C    -5.941178    -2.058740    -2.172995
 H    -6.633008    -2.771490    -2.648039
 H    -5.399268    -1.539271    -2.977734
 H    -6.550734    -1.308505    -1.640701
 H    -1.434306     1.192755     1.096549
 H    -2.547759    -0.096047     1.478575
 C    -3.453746     1.559798     0.365647
 H    -3.337475     1.981918    -0.646034
 H    -4.397163     0.988184     0.337846
 C    -3.605639     2.717420     1.356720
 H    -2.650274     3.276732     1.359506
 C    -4.707094     3.667964     0.904809
 H    -4.516004     4.053248    -0.109134
 H    -4.795588     4.531231     1.582543
 H    -5.684406     3.157128     0.887309
 C    -3.849245     2.228179     2.779239
 H    -3.952054     3.076913     3.473132
 H    -3.021700     1.599726     3.140625
 H    -4.776959     1.633933     2.837123
 C     0.878321     2.441705     1.336387
 H     1.262005     2.750760     0.362908
 C     0.448802     0.761724     2.994976
 H     0.469101    -0.282744     3.319556
 C     0.268772     3.394931     2.142390
 H     0.182967     4.436083     1.824780
 C    -0.146267     1.709595     3.823431
 H    -0.545629     1.398452     4.788947
 C    -0.254609     3.037895     3.391507
 O    -0.851169     4.020433     4.093783
 C    -1.345776     3.732334     5.372942
 H    -0.547381     3.382467     6.050546
 H    -1.761221     4.668412     5.766826
 H    -2.146170     2.973079     5.342214
 H     2.626325    -1.362350     2.500046
 H     3.624990    -0.024254     1.908031
 C     3.831904    -1.890257     0.778402
 H     3.143845    -2.526566     0.195636
 H     4.450250    -1.356250     0.034362
 C     4.733995    -2.794192     1.620485
 H     4.076820    -3.330257     2.330090
 C     5.411170    -3.835208     0.737752
 H     4.669276    -4.435742     0.189107
 H     6.030104    -4.525025     1.332313
 H     6.069256    -3.353899    -0.005452
 C     5.758987    -2.001635     2.423545
 H     6.398259    -2.669478     3.021747
 H     5.281889    -1.293037     3.117513
 H     6.417936    -1.422408     1.754066
 H     1.481952     1.156390    -1.253487
 H     2.521034    -0.225177    -1.497937
 C     3.511637     1.471417    -0.540385
 H     3.409140     2.007786     0.417775
 H     4.417735     0.849375    -0.435548
 C     3.739404     2.503017    -1.649509
 H     2.820389     3.119038    -1.707064
 C     4.901447     3.423824    -1.299381
 H     4.742733     3.924858    -0.331443
 H     5.042614     4.202986    -2.064916
 H     5.843841     2.855500    -1.228737
 C     3.939433     1.852505    -3.013155
 H     4.081726     2.610776    -3.798461
 H     3.074196     1.240001    -3.305265
 H     4.830628     1.202315    -3.008533
