 102
scf done:    -2532.608436
 C     0.624027    -1.672140    -3.005033
 H     0.413632    -0.979178    -3.842534
 H     1.712584    -1.593166    -2.844616
 C     0.332164    -3.093486    -3.475273
 H    -0.702106    -3.205718    -3.835022
 H     0.994871    -3.395050    -4.306882
 H     0.467287    -3.834668    -2.671212
Ir    -0.506906    -0.853609    -1.360704
 C     2.694879    -1.614598     0.020275
 C     2.663105     0.742762    -1.767919
 C     1.706326     0.910950     0.981210
 C    -1.565495     1.837638     0.920081
 C    -3.649125     0.535516    -0.653533
 C    -2.435020    -0.831469     1.627317
 P    -1.973846     0.195407     0.147789
 P     1.630525    -0.178759    -0.528975
 C    -1.910267    -1.919536    -1.890374
 O    -2.751970    -2.673646    -2.142474
 H     2.514451    -1.611837     1.110127
 C     4.198103    -1.426736    -0.202740
 H     4.540592    -0.452296     0.174075
 H     4.406391    -1.443943    -1.286909
 C     4.985962    -2.542593     0.477856
 H     6.063317    -2.406458     0.289748
 H     4.849850    -2.454325     1.570973
 C     4.530644    -3.921813     0.016232
 H     5.081539    -4.709822     0.555149
 H     4.779395    -4.044882    -1.053396
 C     3.027289    -4.097294     0.198295
 H     2.792335    -4.098103     1.278179
 H     2.702779    -5.076234    -0.189784
 C     2.248085    -2.982835    -0.491641
 H     2.422277    -3.046783    -1.576719
 H     1.161306    -3.096546    -0.356557
 H     2.838534     0.029468    -2.588794
 H     3.641360     0.969966    -1.322267
 C     2.025026     1.995305    -2.304549
 C     2.674278     3.230515    -2.185748
 H     3.658515     3.275381    -1.712394
 C     0.785799     1.960989    -2.959244
 H     0.246677     1.010241    -3.043006
 C     2.098705     4.399276    -2.683280
 H     2.625443     5.350602    -2.575352
 C     0.212310     3.125227    -3.463643
 H    -0.756833     3.071144    -3.965535
 C     0.861587     4.351302    -3.322540
 H     0.408494     5.264724    -3.715254
 H     1.034999     0.419708     1.702202
 H     1.239144     1.857688     0.678689
 C     3.048130     1.160241     1.596257
 C     3.858096     2.213430     1.152366
 H     3.474640     2.891517     0.387283
 C     3.532732     0.340662     2.624291
 H     2.894812    -0.455101     3.014602
 C     5.132439     2.410194     1.680151
 H     5.748394     3.236286     1.316151
 C     4.806335     0.534196     3.153383
 H     5.166279    -0.121370     3.950245
 C     5.617792     1.562140     2.674667
 H     6.618061     1.712676     3.087238
 H    -0.720888     1.592858     1.585681
 C    -2.646707     2.488171     1.780674
 H    -3.032565     1.792539     2.541517
 H    -3.505674     2.760918     1.144521
 C    -2.114184     3.756321     2.444833
 H    -2.902630     4.218300     3.061102
 H    -1.296454     3.484588     3.136944
 C    -1.594820     4.749863     1.411081
 H    -1.181124     5.641932     1.908509
 H    -2.442571     5.102880     0.795937
 C    -0.551368     4.111968     0.501509
 H     0.354013     3.883277     1.093690
 H    -0.233073     4.813023    -0.286310
 C    -1.069221     2.826216    -0.133511
 H    -1.896147     3.070413    -0.825419
 H    -0.294487     2.364116    -0.759865
 H    -3.565677     0.146379    -1.676708
 H    -3.737206     1.628630    -0.739793
 C    -4.856657    -0.041010     0.027634
 C    -5.628628     0.716324     0.917696
 H    -5.371736     1.762115     1.099053
 C    -5.230833    -1.372785    -0.202692
 H    -4.656031    -1.979564    -0.906274
 C    -6.726756     0.160068     1.571187
 H    -7.314791     0.773415     2.258467
 C    -6.326987    -1.930911     0.450715
 H    -6.598425    -2.971012     0.254187
 C    -7.077403    -1.169427     1.345505
 H    -7.936816    -1.607799     1.858127
 H    -2.863200    -1.756514     1.214698
 H    -3.235798    -0.335592     2.194821
 C    -1.255304    -1.139137     2.495847
 C    -0.967187    -0.364382     3.627134
 H    -1.619683     0.474044     3.884962
 C    -0.406626    -2.210999     2.188562
 H    -0.610922    -2.806987     1.295913
 C     0.125548    -0.660762     4.440767
 H     0.328914    -0.046961     5.321390
 C     0.676152    -2.518877     3.008781
 H     1.309898    -3.374972     2.766737
 C     0.945796    -1.746910     4.139605
 H     1.789119    -1.996049     4.788285
