 104
scf done:    -2308.934192
 C    -0.202391    -2.928518     1.318599
 H     0.147449    -3.787296     0.717276
 H     0.617907    -2.727386     2.026580
 C    -1.436080    -3.351987     2.112279
 H    -2.255004    -3.682559     1.453416
 H    -1.220350    -4.186041     2.806226
 H    -1.843045    -2.526634     2.720247
Ir    -0.590173    -1.250739     0.037901
 C     1.249322     1.267994     2.002102
 C     2.665314    -1.198404     1.540668
 C     2.288685     0.618051    -0.631337
 C    -0.342741     1.110836    -2.630658
 C    -2.975189     0.346200    -1.998256
 C    -1.626635     2.083685    -0.079080
 P    -1.349434     0.611976    -1.157908
 P     1.374434    -0.117295     0.787153
 C    -1.688822    -2.391086    -0.906094
 O    -2.284623    -3.117856    -1.580007
 C     1.650025     2.565947     1.652764
 H     2.024040     2.770093     0.648972
 C     0.718435     1.040952     3.292030
 C     0.185768    -0.295321     3.715457
 H     0.986166    -0.959094     4.080009
 H    -0.310131    -0.814283     2.879586
 H    -0.540553    -0.184949     4.532491
 C     1.583389     3.618919     2.561467
 H     1.906385     4.618179     2.260786
 C     0.670545     2.110480     4.194529
 H     0.263184     1.933424     5.193652
 C     1.106415     3.385522     3.847862
 H     1.053976     4.198527     4.575793
 H     3.519509    -0.568929     1.837332
 H     2.244292    -1.617607     2.465585
 C     3.083628    -2.327106     0.606873
 H     2.179801    -2.780971     0.167250
 H     3.660434    -1.919404    -0.241208
 C     3.905942    -3.399340     1.306342
 H     3.313589    -3.816684     2.140706
 H     4.799790    -2.941519     1.768986
 C     4.335073    -4.529067     0.380984
 H     3.435870    -4.974665    -0.079384
 H     4.921655    -4.109091    -0.455624
 C     5.142764    -5.609718     1.081121
 H     5.436834    -6.411990     0.387478
 H     4.565654    -6.071922     1.898123
 H     6.064408    -5.197577     1.523164
 H     2.212358    -0.135695    -1.428874
 H     1.680278     1.458120    -1.002403
 C     3.741872     1.034785    -0.443080
 H     3.870014     1.638506     0.470719
 H     4.368556     0.139622    -0.297030
 C     4.257737     1.815541    -1.645217
 H     3.646501     2.727752    -1.776065
 H     4.091335     1.222447    -2.562570
 C     5.726434     2.200018    -1.542849
 H     5.884152     2.786426    -0.620128
 H     6.332048     1.284581    -1.420059
 C     6.226683     2.987664    -2.742877
 H     7.290697     3.250447    -2.643393
 H     5.662282     3.925869    -2.867908
 H     6.111702     2.410449    -3.674450
 C     0.316877     0.016426    -3.213206
 H     0.206323    -0.961139    -2.730130
 C    -0.202677     2.386448    -3.219588
 C    -0.909823     3.619072    -2.730229
 H    -0.538699     3.950300    -1.749237
 H    -1.992394     3.454329    -2.628482
 H    -0.764898     4.448356    -3.435847
 C     1.123469     0.157425    -4.337069
 H     1.621546    -0.715186    -4.765913
 C     0.638825     2.512164    -4.334396
 H     0.763548     3.501171    -4.784179
 C     1.300180     1.421982    -4.891410
 H     1.944095     1.562331    -5.763017
 H    -3.230947     1.247976    -2.580178
 H    -2.769350    -0.449324    -2.734141
 C    -4.121094    -0.071710    -1.085208
 H    -3.737103    -0.748313    -0.301498
 H    -4.518145     0.811668    -0.556569
 C    -5.250639    -0.765708    -1.833134
 H    -4.846247    -1.668681    -2.324478
 H    -5.615395    -0.112766    -2.647455
 C    -6.415200    -1.159610    -0.935791
 H    -6.036800    -1.801951    -0.121158
 H    -6.816088    -0.256201    -0.442141
 C    -7.531821    -1.877143    -1.676621
 H    -8.357211    -2.151791    -1.002330
 H    -7.165113    -2.802982    -2.148144
 H    -7.951570    -1.245769    -2.476544
 H    -0.645677     2.562669     0.076220
 H    -2.274374     2.819128    -0.577946
 C    -2.211560     1.694643     1.273976
 H    -3.214912     1.260397     1.140484
 H    -1.600935     0.886656     1.710708
 C    -2.286238     2.868788     2.236943
 H    -2.892489     3.678500     1.789687
 H    -1.274064     3.286480     2.374281
 C    -2.864740     2.496322     3.593970
 H    -3.885363     2.096292     3.459213
 H    -2.273464     1.665413     4.016302
 C    -2.889942     3.655920     4.575732
 H    -3.311473     3.359649     5.548456
 H    -3.496099     4.492443     4.191851
 H    -1.873889     4.043360     4.754301
