  74
scf done:    -2835.041086
 C    -3.727044    -0.175112    -0.665417
 H    -4.518053     0.591229    -0.645495
 H    -3.741692    -0.563945    -1.694079
 C    -4.101859    -1.285290     0.311575
 H    -4.149953    -0.918883     1.349620
 H    -5.087185    -1.731482     0.079831
 H    -3.374434    -2.117133     0.304980
Ir    -1.840095     0.612831    -0.049590
 C     0.350664    -2.157200    -0.439017
 C    -1.681410    -2.066411    -2.495153
 C     0.586880    -0.057909    -2.455939
 C     1.602805     1.567100     0.461865
 C    -0.277681     2.775793     2.260052
 C     0.395973    -0.182206     2.472082
 P     0.002426     1.198603     1.282220
 P    -0.656731    -0.950667    -1.393009
 C    -2.710551     2.210589     0.236136
 O    -3.203530     3.257102     0.256369
 C     1.749562    -2.180577    -0.418908
 H     2.325377    -1.512637    -1.059030
 C    -0.336019    -3.034935     0.414388
 H    -1.429069    -3.026384     0.434470
 C     2.444779    -3.033887     0.437205
 H     3.536055    -3.038370     0.454013
 C     0.341475    -3.898904     1.265366
 H    -0.202737    -4.571616     1.930020
 C     1.737197    -3.885650     1.280953
Cl     2.592593    -4.931817     2.361609
 H    -2.522333    -2.325337    -1.829170
 C    -2.257245    -1.284896    -3.673865
 H    -3.087193    -1.850406    -4.125920
 H    -2.644724    -0.301909    -3.371899
 H    -1.502297    -1.128442    -4.458360
 C    -1.022656    -3.363777    -2.949242
 H    -0.660182    -3.968012    -2.106385
 H    -1.757607    -3.971128    -3.502382
 H    -0.173516    -3.184039    -3.622916
 H     1.320943     0.257950    -1.696134
 C     1.308036    -0.889802    -3.511305
 H     2.153786    -0.310695    -3.915877
 H     1.708625    -1.835780    -3.121100
 H     0.647288    -1.130572    -4.356381
 C    -0.000398     1.220411    -3.048393
 H    -0.576064     1.768754    -2.286372
 H     0.813054     1.863458    -3.419496
 H    -0.672636     1.009187    -3.892057
 C     1.619337     2.641048    -0.442576
 H     0.717959     3.244672    -0.579262
 C     2.762450     0.794190     0.588696
 H     2.793285    -0.049901     1.277851
 C     2.746036     2.932862    -1.200510
 H     2.747634     3.766231    -1.904904
 C     3.896473     1.064620    -0.176601
 H     4.794129     0.451278    -0.080153
 C     3.881472     2.130437    -1.072201
Cl     5.278851     2.461617    -2.038335
 H    -0.649037     3.450338     1.468552
 C    -1.406072     2.601557     3.271556
 H    -1.752921     3.586801     3.620001
 H    -2.269307     2.074184     2.840307
 H    -1.067396     2.040387     4.155676
 C     0.949932     3.425721     2.887139
 H     1.764481     3.567315     2.163107
 H     0.676281     4.418902     3.278845
 H     1.343887     2.841396     3.729514
 H     0.887435    -0.910645     1.804831
 C     1.341110     0.135668     3.625038
 H     1.646693    -0.800429     4.120096
 H     2.253586     0.658333     3.305603
 H     0.848115     0.758416     4.385908
 C    -0.888544    -0.841590     2.970002
 H    -1.583953    -1.039939     2.139340
 H    -0.651316    -1.796129     3.465924
 H    -1.417675    -0.206539     3.694972
