  94
scf done:    -3024.544491
 C     1.454635    -0.139314     3.547450
 H     1.006295    -0.971723     4.123366
 H     2.388793    -0.550648     3.137580
 C     1.790555     1.008529     4.493095
 H     0.910410     1.380198     5.040915
 H     2.536270     0.706419     5.250391
 H     2.215890     1.878094     3.964116
Ir     0.004952     0.190101     1.990099
 C     2.732861     0.888530    -0.063520
 O     2.655318    -1.605412     1.034759
 O     1.229672    -1.020241    -1.009145
 C    -2.762501    -0.982787     0.119450
 O    -2.668099     1.623963     0.839297
 O    -1.298065     0.742119    -1.154453
 P    -1.623142     0.387732     0.435445
 P     1.628916    -0.427436     0.481638
 C    -1.051559     1.073851     3.271905
 O    -1.667056     1.669182     4.033535
 C     3.353040     0.873647    -1.317839
 H     3.126952     0.074160    -2.024147
 C     3.010114     1.918855     0.842385
 H     2.502011     1.930841     1.810361
 C     4.247684     1.879206    -1.663388
 H     4.739452     1.898206    -2.637208
 C     3.906109     2.927189     0.505630
 H     4.133707     3.746319     1.189615
 C     4.508941     2.889656    -0.746099
 F     5.346581     3.868028    -1.088914
 C     3.810066    -1.942567     0.366260
 C     3.778905    -2.890783    -0.652946
 H     2.832137    -3.363750    -0.920199
 C     5.010483    -1.332370     0.725044
 H     5.010689    -0.585389     1.520893
 C     4.960005    -3.221135    -1.313878
 H     4.930586    -3.964997    -2.114825
 C     6.180202    -1.674031     0.054830
 H     7.117774    -1.187441     0.337491
 C     6.178700    -2.621940    -0.976557
 C     7.452042    -3.002489    -1.674945
 H     7.254572    -3.440393    -2.663816
 H     8.015652    -3.749511    -1.091269
 H     8.112127    -2.133073    -1.811682
 C     0.354735    -2.055287    -1.206799
 C     0.001549    -2.956313    -0.201059
 H     0.423779    -2.860121     0.801371
 C    -0.168086    -2.202981    -2.489657
 H     0.132804    -1.496609    -3.264005
 C    -0.895422    -3.982271    -0.488215
 H    -1.171250    -4.677096     0.309329
 C    -1.057051    -3.237837    -2.757196
 H    -1.463671    -3.342267    -3.766798
 C    -1.444645    -4.145422    -1.763671
 C    -2.419584    -5.250472    -2.048137
 H    -3.388415    -5.066238    -1.557229
 H    -2.048921    -6.218264    -1.677045
 H    -2.608536    -5.352051    -3.126145
 C    -3.426702    -1.164088    -1.098525
 H    -3.216493    -0.492395    -1.931614
 C    -3.024171    -1.846777     1.188652
 H    -2.482429    -1.710759     2.129872
 C    -4.347092    -2.195339    -1.245796
 H    -4.875044    -2.362722    -2.186050
 C    -3.945988    -2.879481     1.053721
 H    -4.161907    -3.570916     1.869852
 C    -4.591411    -3.036018    -0.166966
 F    -5.454416    -4.041797    -0.317024
 C    -3.828912     1.860418     0.142850
 C    -3.811633     2.634438    -1.015356
 H    -2.867988     3.054037    -1.368576
 C    -5.027641     1.323657     0.609802
 H    -5.018273     0.713968     1.515012
 C    -5.000899     2.861759    -1.704094
 H    -4.980419     3.468074    -2.613959
 C    -6.206449     1.560998    -0.089045
 H    -7.141552     1.131575     0.281084
 C    -6.216938     2.331452    -1.258670
 C    -7.498681     2.604887    -1.991216
 H    -7.315998     2.842711    -3.049047
 H    -8.032213     3.463302    -1.549566
 H    -8.180095     1.742374    -1.947548
 C    -0.425724     1.711881    -1.563854
 C    -0.035634     2.779493    -0.752353
 H    -0.419166     2.862623     0.266112
 C     0.056881     1.619391    -2.868011
 H    -0.273131     0.788097    -3.492187
 C     0.854331     3.727130    -1.250748
 H     1.159101     4.552916    -0.602293
 C     0.939941     2.580117    -3.349423
 H     1.312818     2.494900    -4.373867
 C     1.362551     3.649942    -2.551668
 C     2.327722     4.678935    -3.064330
 H     1.931999     5.698671    -2.937414
 H     2.541735     4.532102    -4.132439
 H     3.286387     4.636060    -2.523484
