  94
scf done:    -3024.545831
 C     0.153732    -3.200695     1.729147
 H     0.187943    -3.364436     2.818798
 H    -0.878950    -3.456767     1.438397
 C     1.128580    -4.141973     1.028551
 H     2.169590    -3.963883     1.344386
 H     0.900575    -5.202986     1.239248
 H     1.102070    -4.019383    -0.066726
Ir     0.650579    -1.149015     1.278665
 C    -0.981283    -2.368108    -1.565977
 O    -2.576405    -1.833479     0.430439
 O    -1.573794     0.194399    -0.767248
 C     0.457974     2.432578     0.831505
 O     2.833655     1.393015     0.807793
 O     1.321303     0.779579    -1.178708
 P     1.290455     0.861005     0.492041
 P    -1.136486    -1.272312    -0.144267
 C     1.907306    -1.245410     2.686043
 O     2.608618    -1.312712     3.589297
 C     0.177933    -2.215135    -2.339914
 H     0.915128    -1.455709    -2.062120
 C    -1.936375    -3.327105    -1.914407
 H    -2.834024    -3.439165    -1.304968
 C     0.376678    -3.007582    -3.464082
 H     1.265894    -2.906921    -4.088529
 C    -1.738263    -4.131739    -3.032249
 H    -2.463020    -4.892503    -3.327204
 C    -0.586273    -3.958113    -3.791287
 F    -0.397598    -4.723234    -4.860723
 C    -3.259643    -1.240838     1.468158
 C    -2.607065    -0.656706     2.548402
 H    -1.508854    -0.701301     2.594634
 C    -4.652083    -1.239226     1.382185
 H    -5.133303    -1.701591     0.519120
 C    -3.341975    -0.016117     3.555088
 C    -2.619682     0.631392     4.700384
 H    -1.914762     1.397977     4.340733
 H    -3.317859     1.109919     5.400843
 H    -2.026352    -0.108029     5.260601
 C    -5.383340    -0.620269     2.389857
 H    -6.474681    -0.610436     2.334275
 C    -4.736728    -0.002117     3.462086
 H    -5.323827     0.491461     4.240595
 C    -2.689778     0.422379    -1.540479
 C    -3.793731     1.017369    -0.938374
 H    -3.749777     1.247163     0.127815
 C    -2.686409     0.118632    -2.901300
 H    -1.803244    -0.329977    -3.357153
 C    -4.941068     1.303172    -1.684416
 C    -6.123865     1.946861    -1.022035
 H    -7.022078     1.888623    -1.652450
 H    -6.345370     1.466631    -0.056519
 H    -5.928537     3.012064    -0.816074
 C    -3.827324     0.404010    -3.647298
 H    -3.843743     0.169519    -4.714220
 C    -4.944377     0.983143    -3.046922
 H    -5.833717     1.194637    -3.646138
 C     1.053193     3.676847     0.580878
 H     2.072317     3.723779     0.193943
 C    -0.841587     2.381594     1.346546
 H    -1.300974     1.413457     1.553647
 C     0.350493     4.851294     0.823289
 H     0.790037     5.831476     0.631083
 C    -1.554464     3.550477     1.592482
 H    -2.569300     3.528567     1.993753
 C    -0.946333     4.770500     1.321434
 F    -1.619604     5.893989     1.551196
 C     3.910677     0.549731     0.855210
 C     3.973225    -0.622357     0.102212
 H     3.145367    -0.885312    -0.558885
 C     4.960241     0.907071     1.702621
 H     4.880791     1.827003     2.283937
 C     5.077244    -1.477005     0.210023
 C     5.101285    -2.755866    -0.575308
 H     4.242486    -3.392862    -0.309479
 H     5.035368    -2.560666    -1.657479
 H     6.020797    -3.327680    -0.389327
 C     6.065749     0.069743     1.795026
 H     6.890043     0.338294     2.459982
 C     6.123991    -1.116735     1.062115
 H     6.992293    -1.773449     1.156653
 C     1.527916     1.865563    -1.992408
 C     2.827927     2.264445    -2.293824
 H     3.664546     1.706407    -1.866773
 C     0.426053     2.542236    -2.513224
 H    -0.578021     2.207967    -2.249967
 C     3.052741     3.367629    -3.125048
 C     4.453470     3.782542    -3.471296
 H     5.135780     3.646099    -2.619470
 H     4.847960     3.176179    -4.303670
 H     4.496664     4.835882    -3.782686
 C     0.647120     3.638696    -3.340997
 H    -0.206070     4.183801    -3.751637
 C     1.944996     4.051424    -3.640063
 H     2.103236     4.919318    -4.285640
