 104
scf done:    -2308.943654
 C    -0.984191    -3.374381    -0.841735
 H    -0.783954    -4.331467    -0.333635
 H    -2.079583    -3.274284    -0.826231
 C    -0.502875    -3.478515    -2.285776
 H     0.588704    -3.615958    -2.345751
 H    -0.967558    -4.328001    -2.821404
 H    -0.736948    -2.572808    -2.872699
Ir     0.046870    -1.746766     0.088246
 C    -1.099434     1.031016    -1.806966
 C    -3.176907    -0.901393    -1.322567
 C    -2.255134     0.767556     0.843917
 C     1.052155     1.309133     1.706171
 C     3.098043    -0.665344     1.460443
 C     2.243663     0.773210    -0.890588
 P     1.573759    -0.062522     0.606919
 P    -1.633291    -0.219708    -0.575584
 C     0.892108    -2.989530     1.157141
 O     1.320663    -3.731767     1.934728
 C    -0.965615     2.393062    -1.519412
 H    -1.277332     2.787992    -0.551975
 C    -0.658388     0.575426    -3.058850
 H    -0.721473    -0.489163    -3.300170
 C    -0.397267     3.265775    -2.447950
 H    -0.295176     4.324600    -2.193352
 C    -0.101999     1.450408    -3.983218
 H     0.239428     1.065378    -4.948308
 C     0.049815     2.814112    -3.692140
 C     0.693071     3.742348    -4.678924
 H     0.622913     4.789589    -4.353636
 H     1.760755     3.500220    -4.805137
 H     0.223711     3.660504    -5.671354
 H    -2.858151    -1.557765    -2.149058
 H    -3.744730    -0.070836    -1.769352
 C    -4.011436    -1.688124    -0.314565
 H    -3.340080    -2.250324     0.355927
 H    -4.568867    -0.989989     0.333609
 C    -5.003343    -2.664490    -0.949541
 H    -4.416701    -3.359506    -1.579657
 C    -5.698900    -3.487015     0.127967
 H    -4.970026    -4.030118     0.749084
 H    -6.385849    -4.226619    -0.311779
 H    -6.291194    -2.839123     0.796037
 C    -6.016212    -1.957308    -1.842880
 H    -6.721263    -2.675161    -2.289960
 H    -5.531854    -1.413692    -2.668137
 H    -6.607590    -1.228283    -1.262760
 H    -1.393165     1.349991     1.201963
 H    -2.448137     0.029313     1.636947
 C    -3.461389     1.669981     0.602593
 H    -3.386633     2.157734    -0.383116
 H    -4.383651     1.065587     0.562783
 C    -3.631011     2.756075     1.669209
 H    -2.704838     3.362866     1.669056
 C    -4.796267     3.671982     1.315876
 H    -4.667897     4.121793     0.318787
 H    -4.899544     4.490994     2.044626
 H    -5.746824     3.112795     1.308221
 C    -3.794857     2.167802     3.065969
 H    -3.955481     2.961199     3.812783
 H    -2.908318     1.594565     3.375162
 H    -4.667137     1.493671     3.108408
 C     0.598260     0.970114     2.990800
 H     0.634758    -0.073943     3.315435
 C     0.943609     2.642839     1.300916
 H     1.271840     2.946300     0.305700
 C     0.058917     1.931712     3.834833
 H    -0.290697     1.639129     4.829138
 C     0.386063     3.602292     2.147719
 H     0.302579     4.637072     1.803038
 C    -0.068714     3.267893     3.425462
 C    -0.692345     4.289515     4.329287
 H    -0.639010     5.298255     3.896698
 H    -1.753903     4.056744     4.511740
 H    -0.194144     4.312953     5.310968
 H     2.753672    -1.127945     2.400424
 H     3.718779     0.201007     1.736667
 C     3.869367    -1.683021     0.627427
 H     3.152525    -2.326148     0.088482
 H     4.450898    -1.161160    -0.153939
 C     4.810812    -2.576542     1.436829
 H     4.188788    -3.101791     2.185156
 C     5.442811    -3.630544     0.536207
 H     4.674361    -4.237111     0.032581
 H     6.089292    -4.313311     1.109144
 H     6.064400    -3.160368    -0.244599
 C     5.874672    -1.774652     2.177649
 H     6.541752    -2.435323     2.752976
 H     5.432956    -1.055852     2.884451
 H     6.500717    -1.205826     1.468806
 H     1.408602     1.349651    -1.317178
 H     2.421188    -0.044344    -1.606664
 C     3.480940     1.648199    -0.725357
 H     3.409656     2.242300     0.200803
 H     4.375590     1.013247    -0.601639
 C     3.712419     2.605878    -1.898088
 H     2.816538     3.252681    -1.972521
 C     4.917396     3.498593    -1.628282
 H     4.803800     4.054674    -0.684461
 H     5.064940     4.231937    -2.436385
 H     5.839875     2.899102    -1.551497
 C     3.858141     1.867864    -3.224052
 H     4.061789     2.570378    -4.047561
 H     2.948113     1.305946    -3.482209
 H     4.697583     1.153063    -3.185373
