  78
scf done:    -3683.929369
 C    -1.308838     1.173382    -3.188882
 H    -1.642698     0.501075    -3.997550
 H    -2.234825     1.502959    -2.688746
 C    -0.598470     2.381429    -3.787826
 H     0.269990     2.087833    -4.399152
 H    -1.270725     2.971805    -4.437694
 H    -0.223227     3.069540    -3.011241
Ir    -0.008147     0.215420    -1.804000
 C    -1.853390     1.362240     1.018086
 C    -3.458579    -0.019394    -0.931467
 C    -1.758667    -1.546584     0.652709
 C     1.823259    -1.568800     0.800412
 C     3.420656     0.050157    -0.940010
 C     1.779357     1.349142     0.907316
 P     1.717810    -0.073741    -0.250349
 P    -1.754768     0.046040    -0.248171
 C     0.952038    -0.433683    -3.251721
 O     1.437733    -1.007036    -4.127652
 C    -1.340580     1.212282     2.310492
 H    -0.985763     0.236913     2.645922
 C    -2.286872     2.632762     0.611008
 H    -2.670510     2.779115    -0.402589
 C    -1.261845     2.295007     3.181329
 H    -0.847006     2.177352     4.183383
 C    -2.223510     3.720235     1.474198
 H    -2.559920     4.708151     1.155503
 C    -1.700676     3.546337     2.756152
Cl    -1.557540     4.906684     3.812517
 C    -3.645552    -0.736475    -2.119906
 H    -2.773118    -1.138215    -2.642295
 C    -4.574519     0.496106    -0.264488
 H    -4.452196     1.048745     0.669624
 C    -4.919185    -0.930828    -2.640796
 H    -5.080836    -1.483296    -3.567951
 C    -5.855893     0.314630    -0.779850
 H    -6.737486     0.714787    -0.276000
 C    -6.010104    -0.397672    -1.962536
 F    -7.231225    -0.573625    -2.458500
 C    -2.516061    -1.757998     1.811429
 H    -3.075853    -0.935764     2.263404
 C    -1.098783    -2.629462     0.060608
 H    -0.519843    -2.451528    -0.851228
 C    -2.575538    -3.018509     2.397338
 H    -3.151169    -3.202160     3.306260
 C    -1.172602    -3.899429     0.622031
 H    -0.660731    -4.753939     0.177544
 C    -1.900381    -4.073895     1.792353
 F    -1.960139    -5.279910     2.346352
 C     2.281890    -2.758801     0.216898
 H     2.674242    -2.748658    -0.803788
 C     1.300987    -1.620497     2.097200
 H     0.926231    -0.711712     2.569992
 C     2.237996    -3.961428     0.912224
 H     2.596401    -4.885390     0.455452
 C     1.240566    -2.819397     2.801130
 H     0.820203    -2.856439     3.807141
 C     1.707822    -3.986800     2.202562
Cl     1.592977    -5.488380     3.051354
 C     3.621362     0.852404    -2.069490
 H     2.759484     1.315562    -2.557339
 C     4.534313    -0.521271    -0.311434
 H     4.406015    -1.139506     0.579704
 C     4.898701     1.069779    -2.575828
 H     5.066215     1.689603    -3.458248
 C     5.817066    -0.319476    -0.812083
 H     6.692953    -0.766875    -0.338861
 C     5.981935     0.474544    -1.941084
 F     7.205797     0.669429    -2.422817
 C     2.524572     1.352404     2.092724
 H     3.061391     0.454973     2.408652
 C     1.145101     2.530365     0.503104
 H     0.576177     2.531331    -0.433099
 C     2.599041     2.496476     2.881588
 H     3.167662     2.514499     3.813083
 C     1.229441     3.687311     1.269804
 H     0.734928     4.612333     0.970557
 C     1.947479     3.650393     2.458468
 F     2.020029     4.745033     3.208098
