 100
scf done:    -2904.721064
 C    -1.285002     0.369388    -3.704524
 H    -0.919014     0.164122    -4.722761
 H    -2.135527    -0.314290    -3.555046
 C    -1.739927     1.824188    -3.610113
 H    -0.909722     2.525887    -3.795134
 H    -2.524501     2.057286    -4.354187
 H    -2.151802     2.065770    -2.616709
Ir     0.236166     0.026516    -2.233917
 C    -1.040515    -1.235551     0.817964
 O    -2.431733     0.825649    -0.371908
 O    -2.493926    -1.536497    -1.440523
 C     2.365455    -1.469852     0.250228
 O     3.277859     0.595596    -1.262587
 O     1.657618     0.990553     0.685806
 P     1.843814     0.011066    -0.650795
 P    -1.455540    -0.442450    -0.761151
 C     1.452093    -0.232660    -3.643274
 O     2.152945    -0.517331    -4.506346
 C    -0.850262    -2.622839     0.833266
 H    -1.055552    -3.205544    -0.067631
 C    -0.728801    -0.496428     1.964364
 H    -0.845404     0.587874     1.977380
 C    -0.376976    -3.256090     1.975684
 H    -0.226144    -4.338800     1.966039
 C    -0.260806    -1.141142     3.103908
 H    -0.029183    -0.549065     3.993331
 C    -0.073407    -2.527233     3.131436
 C     0.480735    -3.211219     4.344222
 H     0.026738    -4.201967     4.492912
 H     1.567445    -3.362037     4.231246
 H     0.321261    -2.616975     5.255002
 C    -3.013092     1.227973     0.805871
 C    -3.869301     0.418531     1.547969
 H    -4.100096    -0.593491     1.216506
 C    -2.714454     2.518629     1.238584
 H    -2.023948     3.123498     0.648994
 C    -4.417660     0.914863     2.728807
 H    -5.084136     0.270789     3.309039
 C    -3.271571     2.995801     2.419425
 H    -3.018597     4.005736     2.754940
 C    -4.135004     2.205281     3.188598
 C    -4.755908     2.736800     4.447964
 H    -5.034749     1.924462     5.134580
 H    -5.672901     3.309099     4.227967
 H    -4.071581     3.413955     4.980406
 C    -3.808172    -1.682755    -1.075054
 C    -4.757705    -0.781059    -1.558341
 H    -4.433242     0.032338    -2.209279
 C    -4.196352    -2.728981    -0.242437
 H    -3.447558    -3.428395     0.129982
 C    -6.088132    -0.919894    -1.183083
 H    -6.823205    -0.201061    -1.555396
 C    -5.537247    -2.856437     0.119788
 H    -5.834648    -3.677184     0.778139
 C    -6.504498    -1.954624    -0.333653
 C    -7.946584    -2.087766     0.061401
 H    -8.578219    -2.325576    -0.809794
 H    -8.330805    -1.150058     0.492366
 H    -8.089000    -2.884975     0.804318
 C     2.240552    -2.690494    -0.419691
 H     1.781691    -2.707624    -1.413376
 C     2.931146    -1.442820     1.529430
 H     3.032196    -0.491493     2.053721
 C     2.682148    -3.866758     0.178710
 H     2.578498    -4.815593    -0.354698
 C     3.369175    -2.623013     2.118157
 H     3.824065    -2.589459     3.112369
 C     3.247525    -3.853642     1.458873
 C     3.678698    -5.125524     2.127379
 H     4.578106    -4.973785     2.742163
 H     2.886844    -5.501202     2.797813
 H     3.890567    -5.917301     1.395006
 C     4.415131     0.700124    -0.500687
 C     4.638503     1.838826     0.271183
 H     3.899635     2.642303     0.267130
 C     5.350163    -0.333237    -0.512338
 H     5.152256    -1.220501    -1.116266
 C     5.799990     1.932959     1.033251
 H     5.968166     2.828227     1.638483
 C     6.506565    -0.222850     0.253496
 H     7.232994    -1.040195     0.242732
 C     6.753887     0.908253     1.040766
 C     8.018553     1.032845     1.840629
 H     8.823051     1.491907     1.241610
 H     8.382862     0.050447     2.175222
 H     7.873698     1.664368     2.729292
 C     1.117315     2.242297     0.683857
 C     0.772568     2.940622    -0.475662
 H     0.917985     2.479453    -1.458642
 C     0.925162     2.837343     1.932534
 H     1.212718     2.281609     2.827058
 C     0.225226     4.217304    -0.369165
 H    -0.047297     4.746861    -1.286184
 C     0.383726     4.115703     2.017644
 H     0.238827     4.566870     3.003160
 C     0.015960     4.830739     0.871241
 C    -0.619662     6.187323     0.969393
 H    -1.720518     6.110169     0.973858
 H    -0.344422     6.825083     0.116761
 H    -0.324250     6.706157     1.892847
