 102
scf done:    -2880.902535
 C     2.002316     1.630093    -2.745530
 H     1.645754     2.519716    -3.296149
 H     2.781928     2.009502    -2.061172
 C     2.661753     0.662885    -3.722817
 H     1.956908     0.316442    -4.495755
 H     3.521555     1.122229    -4.244810
 H     3.039878    -0.237905    -3.212677
Ir     0.383994     0.680260    -1.695010
 C     3.143414     1.167815     0.444987
 C     1.407574     3.460344    -0.014777
 C     0.721420     1.574780     1.944926
 C    -2.365586    -0.176151     0.489035
 C    -2.212017    -1.615320    -1.975633
 C    -0.316532    -2.174462     0.200056
 P    -1.118461    -0.776225    -0.705126
 P     1.382095     1.610127     0.205764
 C    -0.569134     0.787446    -3.277607
 O    -1.209497     1.018763    -4.211643
 C     3.598366    -0.019997    -0.141144
 H     2.919298    -0.605482    -0.767242
 C     4.021818     1.909584     1.244769
 H     3.693628     2.838877     1.717619
 C     4.898000    -0.469128     0.073653
 H     5.257962    -1.393375    -0.380627
 C     5.324466     1.473447     1.467656
 H     6.021841     2.038145     2.088937
 C     5.742550     0.283356     0.879733
 F     6.984740    -0.141993     1.096270
 H     1.972270     3.910456     0.816025
 H     1.963285     3.641401    -0.945285
 C     0.020660     4.030457    -0.085383
 C    -0.695568     4.011211    -1.289993
 H    -0.223113     3.609197    -2.187291
 C    -0.602739     4.540620     1.056879
 H    -0.045723     4.574176     1.998639
 C    -2.003749     4.481995    -1.331016
 H    -2.554529     4.462784    -2.274375
 C    -1.921635     5.011637     1.035351
 C    -2.570724     5.512893     2.293219
 H    -2.822677     4.677944     2.968917
 H    -1.902936     6.186946     2.850830
 H    -3.501144     6.057107     2.078312
 C    -2.615679     4.973863    -0.177582
 H    -3.644574     5.342074    -0.221525
 H     1.331673     2.307706     2.500795
 H    -0.290598     1.999607     1.871227
 C     0.669743     0.283321     2.707871
 C    -0.545724    -0.139536     3.256542
 H    -1.445866     0.454292     3.088701
 C     1.816304    -0.480444     2.961950
 H     2.778746    -0.157752     2.562238
 C    -0.614795    -1.311540     4.005537
 H    -1.575717    -1.635698     4.412434
 C     1.768322    -1.648512     3.728140
 C     3.025361    -2.412839     4.026508
 H     3.435825    -2.122304     5.007961
 H     2.843918    -3.497452     4.061246
 H     3.801732    -2.216548     3.273963
 C     0.531901    -2.066765     4.235258
 H     0.472324    -2.985273     4.825801
 C    -2.648459     1.195231     0.491565
 H    -2.101061     1.854591    -0.190146
 C    -3.060824    -1.017078     1.369906
 H    -2.856651    -2.088760     1.390583
 C    -3.602044     1.725868     1.358124
 H    -3.826541     2.793391     1.366446
 C    -4.014151    -0.499605     2.242007
 H    -4.561094    -1.138843     2.937652
 C    -4.270604     0.868143     2.223048
 F    -5.181104     1.366424     3.057515
 H    -2.754175    -0.787223    -2.455979
 H    -1.529190    -2.029929    -2.732002
 C    -3.150304    -2.651964    -1.453918
 C    -2.743645    -3.986141    -1.306442
 H    -1.748068    -4.288756    -1.643506
 C    -4.438587    -2.296562    -1.043012
 H    -4.761762    -1.257944    -1.159593
 C    -3.604549    -4.922125    -0.741159
 H    -3.282092    -5.960472    -0.631679
 C    -5.314876    -3.222954    -0.467603
 C    -6.676585    -2.787488    -0.010870
 H    -6.599134    -2.003390     0.759967
 H    -7.259979    -2.362475    -0.842752
 H    -7.249791    -3.624360     0.411782
 C    -4.878022    -4.542605    -0.317050
 H    -5.546290    -5.283547     0.130080
 H    -0.145955    -1.808737     1.223777
 H    -1.032955    -3.010101     0.282142
 C     0.986892    -2.654431    -0.385496
 C     1.284140    -2.571788    -1.751704
 H     0.576375    -2.120136    -2.448469
 C     1.946509    -3.212576     0.467627
 H     1.723475    -3.271959     1.535975
 C     2.508369    -3.030158    -2.236575
 H     2.726840    -2.951027    -3.303938
 C     3.178906    -3.678866    -0.000723
 C     4.205608    -4.230747     0.945075
 H     4.846993    -4.976147     0.452928
 H     4.864911    -3.429556     1.320878
 H     3.738280    -4.703359     1.820486
 C     3.449139    -3.579730    -1.370859
 H     4.405464    -3.939442    -1.761265
