  82
scf done:    -3264.168429
 C     1.608027     0.449914     3.303905
 H     1.444971    -0.392921     3.999134
 H     2.596622     0.247537     2.861933
 C     1.668241     1.761286     4.079699
 H     0.753625     1.944111     4.665540
 H     2.515314     1.778971     4.789014
 H     1.788265     2.636256     3.418631
Ir     0.022849     0.326390     1.846431
 C     2.863748     0.840003    -0.258378
 O     2.611604    -1.514998     1.104139
 O     1.293252    -1.085038    -1.045164
 C    -2.812653    -0.952861     0.002382
 O    -2.719748     1.614717     0.789331
 O    -1.328115     0.810151    -1.232041
 P    -1.658919     0.396901     0.346444
 P     1.674963    -0.348362     0.388009
 C    -1.170520     0.706745     3.253841
 O    -1.900626     0.872836     4.121348
 C     3.612283     0.593797    -1.417787
 H     3.438992    -0.317846    -1.991587
 C     3.076995     2.017508     0.467788
 H     2.477043     2.215474     1.359275
 C     4.568270     1.508355    -1.840215
 H     5.162971     1.341680    -2.739796
 C     4.037705     2.935214     0.055746
 H     4.217048     3.862520     0.601800
 C     4.768312     2.667238    -1.095445
 F     5.682116     3.539907    -1.498481
 C     3.775682    -1.975710     0.537058
 C     3.740156    -3.023377    -0.382483
 H     2.782746    -3.473394    -0.650585
 C     4.988740    -1.393846     0.904168
 H     4.988933    -0.573391     1.623781
 C     4.926717    -3.488597    -0.944088
 H     4.931734    -4.308794    -1.664045
 C     6.176073    -1.856449     0.345757
 H     7.139579    -1.419225     0.612857
 C     6.129130    -2.896779    -0.575417
 F     7.263508    -3.338415    -1.115737
 C     0.355785    -2.076277    -1.161533
 C    -0.003618    -2.907048    -0.098333
 H     0.464117    -2.785410     0.880281
 C    -0.226802    -2.246821    -2.418072
 H     0.084842    -1.598067    -3.237016
 C    -0.979162    -3.883604    -0.288448
 H    -1.292410    -4.532748     0.530211
 C    -1.197260    -3.222344    -2.607983
 H    -1.680232    -3.363871    -3.576172
 C    -1.574163    -4.020756    -1.533389
 F    -2.533536    -4.929984    -1.704018
 C    -3.463707    -1.117834    -1.225505
 H    -3.218367    -0.456955    -2.057939
 C    -3.124277    -1.803668     1.069231
 H    -2.597907    -1.687486     2.021270
 C    -4.419404    -2.115313    -1.384139
 H    -4.938080    -2.267142    -2.332108
 C    -4.084373    -2.799098     0.923901
 H    -4.341891    -3.474821     1.741153
 C    -4.717624    -2.941244    -0.306235
 F    -5.630786    -3.893150    -0.455279
 C    -3.910003     1.820217     0.137326
 C    -3.949249     2.555836    -1.047222
 H    -3.026256     2.970517    -1.455460
 C    -5.081541     1.291863     0.679955
 H    -5.023877     0.718963     1.606822
 C    -5.165190     2.757302    -1.696073
 H    -5.226983     3.330363    -2.622868
 C    -6.298088     1.490957     0.035412
 H    -7.228794     1.086369     0.436707
 C    -6.323473     2.218779    -1.148876
 F    -7.486153     2.407156    -1.772139
 C    -0.394507     1.761435    -1.543207
 C    -0.165773     2.877869    -0.732895
 H    -0.746570     3.020713     0.179688
 C     0.329469     1.589433    -2.722733
 H     0.124494     0.717544    -3.343626
 C     0.817291     3.797538    -1.089290
 H     1.026783     4.667859    -0.465451
 C     1.310088     2.508053    -3.079584
 H     1.903354     2.384176    -3.986805
 C     1.553377     3.594705    -2.248155
 F     2.522717     4.453716    -2.565634
