 108
scf done:    -2461.281940
 C    -1.207767     1.779569    -2.854448
 H    -0.863499     1.781035    -3.900847
 H    -2.260084     1.463562    -2.906928
 C    -1.123612     3.202952    -2.312087
 H    -0.086910     3.576405    -2.303070
 H    -1.720104     3.916313    -2.911753
 H    -1.493871     3.280427    -1.273977
Ir     0.023284     0.557271    -1.610777
 C    -1.607290     0.817918     1.561017
 C    -3.452233     0.736043    -0.645012
 C    -1.902942    -1.725913     0.172467
 C     1.607456    -1.650616     0.819691
 C     3.360977    -0.318018    -0.998522
 C     1.936682     1.221342     1.190440
 P     1.724063    -0.079231    -0.121304
 P    -1.771166     0.103838    -0.123971
 C     1.033973     0.196711    -3.105134
 O     1.578366    -0.180198    -4.055884
 C    -1.328402     0.070938     2.708936
 H    -1.254962    -1.015298     2.656932
 C    -1.687920     2.213145     1.692855
 H    -1.890976     2.830352     0.813389
 C    -1.117094     0.697489     3.937964
 H    -0.889035     0.086086     4.815885
 C    -1.503263     2.830191     2.923070
 H    -1.582555     3.918670     2.993454
 C    -1.197087     2.085196     4.070971
 C    -0.934392     2.766901     5.380736
 H     0.045636     3.272931     5.368258
 H    -1.691697     3.536568     5.593449
 H    -0.928341     2.052038     6.215396
 H    -3.199041     1.742049    -1.027792
 C    -4.521171     0.919650     0.435322
 H    -4.123480     1.481254     1.292702
 H    -4.833432    -0.061773     0.826716
 C    -5.736010     1.642910    -0.142371
 H    -6.509417     1.757108     0.634748
 H    -5.437115     2.665808    -0.435419
 C    -6.305285     0.919263    -1.357685
 H    -7.148355     1.487185    -1.783636
 H    -6.718436    -0.054294    -1.035961
 C    -5.234143     0.678311    -2.415461
 H    -4.900698     1.645163    -2.833596
 H    -5.647493     0.101682    -3.258770
 C    -4.028901    -0.048516    -1.828000
 H    -4.349726    -1.045466    -1.482024
 H    -3.259696    -0.214773    -2.596724
 H    -0.998382    -1.929086     0.774939
 C    -1.746309    -2.533809    -1.121293
 H    -0.836649    -2.195586    -1.644023
 H    -2.586074    -2.317465    -1.800337
 C    -1.706467    -4.031789    -0.837490
 H    -1.650197    -4.588044    -1.787393
 H    -0.783499    -4.263755    -0.282122
 C    -2.902213    -4.497253    -0.015028
 H    -2.816682    -5.572530     0.212960
 H    -3.827904    -4.378403    -0.607446
 C    -3.029606    -3.686968     1.269463
 H    -2.146758    -3.871518     1.909333
 H    -3.910469    -4.010470     1.847858
 C    -3.124622    -2.194675     0.965695
 H    -4.035797    -2.016141     0.371571
 H    -3.244835    -1.617217     1.894702
 C     1.664819    -2.849668     0.091670
 H     1.809273    -2.818313    -0.991971
 C     1.397721    -1.735370     2.199343
 H     1.351261    -0.831078     2.806775
 C     1.526898    -4.078905     0.722614
 H     1.589477    -4.995816     0.129651
 C     1.227945    -2.971901     2.823762
 H     1.053924    -3.005727     3.903224
 C     1.286987    -4.165835     2.101584
 C     1.074466    -5.496116     2.761072
 H     1.120416    -5.417118     3.856280
 H     0.086730    -5.910568     2.498134
 H     1.828085    -6.230418     2.438371
 H     3.056434    -0.978550    -1.831999
 C     4.494233    -1.031335    -0.258633
 H     4.135533    -1.960610     0.207828
 H     4.870597    -0.396928     0.559056
 C     5.638570    -1.336687    -1.223478
 H     6.460445    -1.836970    -0.685519
 H     5.283257    -2.054787    -1.984712
 C     6.145979    -0.077856    -1.918837
 H     6.936615    -0.331453    -2.643700
 H     6.615240     0.583157    -1.167120
 C     5.013525     0.677399    -2.606306
 H     4.616618     0.077111    -3.444025
 H     5.388263     1.615625    -3.046684
 C     3.874638     0.974798    -1.636713
 H     4.242676     1.649562    -0.844183
 H     3.056101     1.504325    -2.148316
 H     1.070032     1.035653     1.851935
 C     1.744849     2.630143     0.615689
 H     0.802658     2.669318     0.043750
 H     2.545307     2.847715    -0.109867
 C     1.758614     3.686002     1.715974
 H     1.671622     4.690154     1.269877
 H     0.868012     3.545779     2.350424
 C     3.004809     3.594002     2.588690
 H     2.958776     4.335889     3.402900
 H     3.896333     3.848877     1.987045
 C     3.174999     2.188668     3.153788
 H     2.332914     1.961413     3.833586
 H     4.093783     2.122315     3.759185
 C     3.209397     1.151707     2.035057
 H     4.080898     1.359461     1.392296
 H     3.361166     0.141692     2.445090
