  96
scf done:    -2603.919666
 C     1.584218    -0.773514    -2.771886
 H     1.375382    -0.442713    -3.802266
 H     2.573381    -0.351859    -2.530266
 C     1.664832    -2.294293    -2.720924
 H     0.709561    -2.768724    -2.999985
 H     2.435203    -2.685174    -3.411924
 H     1.931633    -2.658268    -1.714552
Ir     0.029356    -0.218579    -1.411761
 C     2.995502    -0.868829     0.300390
 C     2.797155     1.805368    -0.772328
 C     1.374480     1.223067     1.630420
 C    -2.890039     1.069529     0.158638
 C    -3.009938    -1.704192    -0.499596
 C    -1.420065    -1.007816     1.752212
 P    -1.804115    -0.405241     0.052779
 P     1.777513     0.469610    -0.003004
 C    -1.059019     0.156865    -2.858530
 O    -1.669569     0.587428    -3.741103
 C     2.639122    -1.975692     1.082132
 H     1.684467    -1.983952     1.608533
 C     4.212793    -0.913490    -0.389062
 H     4.516035    -0.071260    -1.014457
 C     3.483927    -3.073810     1.192913
 H     3.183625    -3.917530     1.821194
 C     5.046922    -2.024114    -0.286043
 H     5.991371    -2.033159    -0.837116
 C     4.702748    -3.124217     0.505028
 C     5.587829    -4.332398     0.588387
 H     6.627142    -4.090823     0.324277
 H     5.581533    -4.768550     1.598297
 H     5.245167    -5.116803    -0.107058
 C     2.416933     2.248773    -2.044840
 H     1.553663     1.770292    -2.515169
 C     3.882670     2.426339    -0.111496
 C     4.337780     2.078504     1.276924
 H     4.307857     0.999780     1.475021
 H     3.695204     2.559483     2.031294
 H     5.366715     2.428930     1.439617
 C     3.092505     3.280559    -2.686562
 H     2.772121     3.607548    -3.678193
 C     4.553738     3.457545    -0.783323
 H     5.399905     3.938367    -0.284714
 C     4.172694     3.886168    -2.051078
 H     4.720519     4.696205    -2.539060
 C     1.708617     0.595816     2.835162
 H     2.244852    -0.352743     2.823406
 C     0.710760     2.472180     1.656726
 C     0.347341     3.232804     0.414582
 H    -0.043675     2.564015    -0.370915
 H     1.225571     3.746360    -0.005153
 H    -0.415125     3.992001     0.632703
 C     1.391869     1.168861     4.062265
 H     1.660363     0.651948     4.986070
 C     0.404816     3.029435     2.905675
 H    -0.104946     3.996974     2.931559
 C     0.733968     2.394080     4.099360
 H     0.478933     2.858969     5.054759
 C    -3.945353     1.178777    -0.761215
 H    -4.162307     0.352145    -1.441160
 C    -2.625617     2.166672     0.984021
 H    -1.780746     2.147908     1.670781
 C    -4.722334     2.328743    -0.820473
 H    -5.536230     2.383213    -1.549011
 C    -3.418080     3.311145     0.927282
 H    -3.191551     4.148262     1.594142
 C    -4.483471     3.416127     0.029931
 C    -5.344921     4.642792    -0.028261
 H    -4.935600     5.453651     0.590442
 H    -5.439707     5.015593    -1.059847
 H    -6.364421     4.428579     0.332132
 C    -2.728084    -2.385493    -1.689728
 H    -1.815407    -2.124894    -2.231056
 C    -4.168826    -2.049185     0.236915
 C    -4.550423    -1.420808     1.545419
 H    -4.410431    -0.331726     1.542476
 H    -3.937895    -1.821653     2.367871
 H    -5.603977    -1.630398     1.776862
 C    -3.564610    -3.384646    -2.177946
 H    -3.315844    -3.896015    -3.110477
 C    -4.999514    -3.053146    -0.277549
 H    -5.901687    -3.317596     0.280960
 C    -4.712045    -3.717940    -1.466225
 H    -5.386594    -4.495892    -1.832389
 C    -1.727098    -0.285708     2.909907
 H    -2.261093     0.659991     2.835266
 C    -0.774328    -2.262320     1.871836
 C    -0.463799    -3.134091     0.690140
 H    -0.090661    -2.545653    -0.168433
 H    -1.364965    -3.660746     0.340929
 H     0.293731    -3.887899     0.943931
 C    -1.388244    -0.760430     4.173089
 H    -1.635064    -0.167808     5.056620
 C    -0.441892    -2.718385     3.153671
 H     0.057731    -3.686898     3.247877
 C    -0.735378    -1.982079     4.297673
 H    -0.459430    -2.367193     5.282223
