  94
scf done:    -3744.946998
 C     1.503158    -1.192552    -3.137064
 H     1.195034    -1.040802    -4.183978
 H     2.519071    -0.779592    -3.062019
 C     1.521168    -2.684128    -2.831103
 H     0.515972    -3.131455    -2.899514
 H     2.168284    -3.242528    -3.533040
 H     1.908668    -2.892711    -1.819743
Ir     0.129675    -0.276987    -1.804018
 C     1.277696    -1.205461     1.430830
 C     3.420011    -0.935953    -0.448854
 C     2.095547     1.433868     0.440977
 C    -1.670691     1.685447     0.529399
 C    -3.358243     0.205215    -1.287182
 C    -2.178092    -1.205727     0.772839
 P    -1.733851     0.124673    -0.421538
 P     1.734016    -0.283883    -0.094980
 C    -0.478607     0.753997    -3.202479
 O    -0.704031     1.566226    -3.998583
 C     1.272055    -0.675468     2.725022
 H     1.626086     0.339597     2.901541
 C     0.808681    -2.512798     1.245183
 H     0.761044    -2.926881     0.233581
 C     0.799405    -1.421042     3.802243
 H     0.772312    -0.996214     4.807075
 C     0.372536    -3.284106     2.316174
 H     0.007254    -4.299697     2.163665
 C     0.354780    -2.723687     3.590745
Cl    -0.262793    -3.646588     4.920816
 C     3.918757    -2.109834     0.113344
 H     3.315155    -2.650362     0.844512
 C     4.228017    -0.231157    -1.365662
 O     3.713815     0.913266    -1.846466
 C     4.381190     1.620502    -2.850603
 H     5.361737     1.993413    -2.505963
 H     3.741567     2.475942    -3.100640
 H     4.525223     1.002303    -3.753783
 C     5.177900    -2.601947    -0.230862
 H     5.544392    -3.525955     0.221020
 C     5.489188    -0.722175    -1.716840
 H     6.109364    -0.182697    -2.433072
 C     5.956689    -1.906607    -1.149584
 H     6.942977    -2.282340    -1.432740
 C     1.434024     2.485643    -0.192446
 H     0.704333     2.223364    -0.963922
 C     3.098776     1.735492     1.384472
 O     3.766923     0.691321     1.912647
 C     4.860838     0.912566     2.754645
 H     5.635148     1.525693     2.262144
 H     5.279621    -0.075677     2.982611
 H     4.563648     1.403098     3.698701
 C     1.699249     3.812727     0.133790
 H     1.154272     4.617538    -0.362274
 C     3.357809     3.067216     1.728626
 H     4.116962     3.306834     2.473665
 C     2.650254     4.096550     1.108129
 H     2.855338     5.131860     1.391385
 C    -2.128936     2.862829    -0.075015
 H    -2.651626     2.813645    -1.034100
 C    -0.982193     1.782444     1.742852
 H    -0.572468     0.887812     2.211114
 C    -1.911740     4.101886     0.517638
 H    -2.259588     5.018682     0.038599
 C    -0.768918     3.014464     2.353466
 H    -0.214195     3.084114     3.290335
 C    -1.228063     4.170752     1.731267
Cl    -0.901896     5.716637     2.445554
 C    -3.457322    -0.223725    -2.610149
 H    -2.541025    -0.537424    -3.115337
 C    -4.540981     0.571732    -0.604788
 O    -4.408886     0.930767     0.683333
 C    -5.533722     1.303419     1.426221
 H    -6.028664     2.193156     1.000013
 H    -5.172659     1.547272     2.433303
 H    -6.267213     0.481633     1.496687
 C    -4.682629    -0.264040    -3.274449
 H    -4.731393    -0.597985    -4.312631
 C    -5.770343     0.545103    -1.271424
 H    -6.684423     0.839971    -0.755823
 C    -5.833502     0.129223    -2.601032
 H    -6.801821     0.111434    -3.107526
 C    -2.537006    -1.010910     2.105584
 H    -2.513366    -0.004588     2.523011
 C    -2.270279    -2.507908     0.236374
 O    -1.914845    -2.636094    -1.056547
 C    -2.112162    -3.852386    -1.720974
 H    -1.480924    -4.654906    -1.301499
 H    -1.822023    -3.683446    -2.765155
 H    -3.169662    -4.165231    -1.683184
 C    -2.952754    -2.074628     2.906886
 H    -3.206392    -1.901783     3.954378
 C    -2.713948    -3.571401     1.025509
 H    -2.791830    -4.575141     0.607072
 C    -3.043748    -3.349931     2.362348
 H    -3.368836    -4.189516     2.981015
