 100
scf done:    -2904.579045
 C    -1.127451    -3.250069     0.114471
 H    -1.670978    -3.570629     1.020453
 H    -1.906524    -3.074016    -0.643743
 C    -0.215668    -4.379196    -0.353650
 H     0.511507    -4.672755     0.420884
 H    -0.789076    -5.285836    -0.623457
 H     0.368796    -4.096302    -1.245642
Ir    -0.008735    -1.468759     0.448724
 C    -1.418790     0.681909    -2.109137
 C    -3.363637    -0.927598    -0.767461
 C    -2.238845     1.133330     0.693410
 C     1.709652     1.312252     1.943871
 C     3.350350    -0.724581     0.746847
 C     2.189347     1.093792    -0.953532
 P     1.730017     0.128360     0.532848
 P    -1.716903    -0.153242    -0.499421
 C     0.733105    -2.342029     1.901463
 O     1.048011    -2.796692     2.915997
 C    -1.387990     2.074024    -2.239107
 H    -1.581282     2.700994    -1.368375
 C    -1.137054    -0.128438    -3.235379
 C    -1.061301    -1.622805    -3.137278
 H    -2.042433    -2.075833    -2.926382
 H    -0.402745    -1.930985    -2.304535
 H    -0.675723    -2.060693    -4.067753
 C    -1.107914     2.677847    -3.462703
 H    -1.077501     3.767223    -3.536373
 C    -0.889229     0.499588    -4.459606
 H    -0.681053    -0.122636    -5.334549
 C    -0.872075     1.886888    -4.581744
 H    -0.655745     2.346991    -5.548685
 C    -4.144540    -0.735432    -1.914282
 H    -3.755235    -0.147515    -2.749262
 C    -3.904153    -1.667672     0.287303
 H    -3.310786    -1.818250     1.192953
 C    -5.417811    -1.280728    -2.007721
 H    -6.031517    -1.139014    -2.899313
 C    -5.180935    -2.215647     0.209522
 H    -5.564980    -2.789564     1.052971
 C    -5.947482    -2.027565    -0.947709
 O    -7.188908    -2.519970    -1.125060
 C    -7.766103    -3.280486    -0.101129
 H    -7.879178    -2.697996     0.830337
 H    -8.760945    -3.580396    -0.454215
 H    -7.177049    -4.188320     0.118711
 C    -1.716988     1.112323     1.993425
 H    -0.951805     0.367954     2.234942
 C    -3.252530     2.049814     0.395906
 H    -3.725476     2.043716    -0.589366
 C    -2.157771     2.011295     2.952504
 H    -1.744092     2.006049     3.962124
 C    -3.690946     2.971366     1.343393
 H    -4.475902     3.678676     1.074931
 C    -3.135640     2.960641     2.631621
 O    -3.490519     3.810406     3.614748
 C    -4.477575     4.769188     3.358842
 H    -5.443629     4.304860     3.093023
 H    -4.604743     5.345033     4.284319
 H    -4.181552     5.458652     2.548215
 C     2.198799     0.814159     3.164695
 H     2.637357    -0.185802     3.197106
 C     1.090962     2.579834     1.917707
 C     0.431959     3.171505     0.705260
 H     0.226803     2.424247    -0.067220
 H     1.060975     3.947155     0.239914
 H    -0.523018     3.637613     0.990507
 C     2.131716     1.561596     4.333178
 H     2.519319     1.147145     5.266529
 C     1.052031     3.323354     3.106535
 H     0.572286     4.306037     3.087455
 C     1.566582     2.835898     4.300726
 H     1.509796     3.440698     5.208988
 C     4.505445    -0.041674     1.162904
 H     4.440690     1.004033     1.472550
 C     3.480759    -2.054283     0.347210
 H     2.591887    -2.596165     0.010847
 C     5.734230    -0.677322     1.203343
 H     6.633380    -0.156764     1.538341
 C     4.714447    -2.705990     0.372208
 H     4.770320    -3.747548     0.055524
 C     5.850981    -2.019319     0.807802
 O     7.084682    -2.554725     0.880771
 C     7.262417    -3.890705     0.501820
 H     6.997215    -4.056000    -0.557418
 H     8.326879    -4.118670     0.640605
 H     6.665528    -4.577788     1.127221
 C     1.892353     0.543844    -2.206323
 H     1.332498    -0.392171    -2.256077
 C     2.942499     2.267913    -0.905202
 H     3.211258     2.703982     0.060180
 C     2.307104     1.162302    -3.374276
 H     2.071720     0.742497    -4.352756
 C     3.354899     2.909775    -2.071413
 H     3.930551     3.832578    -1.996059
 C     3.031409     2.359424    -3.317818
 O     3.374437     2.905301    -4.502024
 C     4.108739     4.096087    -4.508284
 H     5.087783     3.979278    -4.010565
 H     4.276407     4.358152    -5.560766
 H     3.560117     4.920726    -4.019036
