  78
scf done:    -2963.372425
 C    -1.214258     1.407183    -2.995685
 H    -1.607001     0.801744    -3.830397
 H    -2.107595     1.790216    -2.474402
 C    -0.409145     2.577648    -3.547711
 H     0.429648     2.240163    -4.177603
 H    -1.032563     3.249309    -4.166634
 H     0.025098     3.197940    -2.745179
Ir     0.007718     0.281289    -1.665818
 C    -1.744221     1.453016     1.227039
 C    -3.443841     0.278421    -0.777568
 C    -1.855982    -1.434883     0.726937
 C     1.702201    -1.774709     0.846605
 C     3.410911    -0.191940    -0.818568
 C     1.863662     1.132362     1.089013
 P     1.701486    -0.227719    -0.133363
 P    -1.737878     0.193843    -0.100344
 C     0.905681    -0.379662    -3.147349
 O     1.340236    -0.950418    -4.051545
 C    -1.242286     1.207650     2.509929
 H    -0.938598     0.198783     2.792029
 C    -2.102498     2.765989     0.885240
 H    -2.471720     2.985433    -0.120423
 C    -1.116042     2.235550     3.439993
 H    -0.718048     2.056092     4.439995
 C    -1.989634     3.800990     1.806930
 H    -2.269757     4.825235     1.554388
 C    -1.493517     3.521066     3.075850
 F    -1.366559     4.509350     3.955011
 C    -3.680827    -0.366454    -1.997965
 H    -2.837711    -0.800160    -2.542556
 C    -4.521617     0.834027    -0.080727
 H    -4.360616     1.330819     0.878493
 C    -4.965566    -0.449825    -2.521283
 H    -5.165516    -0.944796    -3.473124
 C    -5.813226     0.763725    -0.597701
 H    -6.665164     1.196800    -0.070576
 C    -6.017011     0.121650    -1.812673
 F    -7.248217     0.052158    -2.310377
 C    -2.611891    -1.645826     1.886468
 H    -3.104147    -0.807652     2.385221
 C    -1.286617    -2.533746     0.073384
 H    -0.708897    -2.354795    -0.839158
 C    -2.754590    -2.925148     2.414941
 H    -3.328738    -3.109481     3.324665
 C    -1.445087    -3.820114     0.576193
 H    -1.004976    -4.686812     0.081167
 C    -2.164667    -3.995866     1.751222
 F    -2.296179    -5.219294     2.254283
 C     2.083569    -2.963908     0.207486
 H     2.467837    -2.932164    -0.815771
 C     1.182922    -1.851144     2.144046
 H     0.860970    -0.943355     2.655826
 C     1.978948    -4.190589     0.853807
 H     2.278660    -5.120787     0.367669
 C     1.063617    -3.072791     2.800524
 H     0.653134    -3.142238     3.809172
 C     1.466280    -4.229197     2.146087
 F     1.347965    -5.400581     2.763205
 C     3.669643     0.642508    -1.912277
 H     2.842868     1.184703    -2.378948
 C     4.481014    -0.865102    -0.215488
 H     4.307737    -1.510571     0.648289
 C     4.960332     0.792924    -2.409200
 H     5.172461     1.437137    -3.264139
 C     5.776014    -0.730675    -0.707109
 H     6.617806    -1.257074    -0.253686
 C     5.998275     0.097795    -1.800991
 F     7.234102     0.228388    -2.274145
 C     1.323575     2.374084     0.731740
 H     0.769291     2.458236    -0.209701
 C     2.592489     1.028867     2.279858
 H     3.058915     0.081515     2.559622
 C     1.481071     3.486493     1.550442
 H     1.061252     4.457796     1.285402
 C     2.738410     2.128129     3.121067
 H     3.293585     2.063026     4.058556
 C     2.175747     3.343124     2.744813
 F     2.308940     4.394140     3.548006
