 100
scf done:    -2904.721664
 C     1.422586     2.600648    -1.173428
 H     2.052038     3.179036    -0.479105
 H     2.132649     2.059463    -1.818370
 C     0.570691     3.541283    -2.015844
 H    -0.104896     4.155156    -1.399066
 H     1.198405     4.233353    -2.606773
 H    -0.070941     3.000213    -2.730107
Ir     0.138545     1.238130    -0.140462
 C     1.142691    -1.773477    -1.954199
 O     3.024439    -0.260601    -1.040979
 O     1.572534    -1.540445     0.672359
 C    -1.867173    -0.864670     2.110361
 O    -2.979001     1.079031     0.773058
 O    -2.263250    -0.967584    -0.624166
 P    -1.687058     0.049963     0.543469
 P     1.447025    -0.541904    -0.646240
 C    -0.233005     2.671507     1.014788
 O    -0.294343     3.453198     1.858288
 C     1.293484    -3.138575    -1.687816
 H     1.553733    -3.459704    -0.677959
 C     0.772795    -1.336734    -3.243157
 C     0.562226     0.113428    -3.559131
 H     1.499294     0.686478    -3.482631
 H    -0.140611     0.577525    -2.844951
 H     0.165868     0.243463    -4.574990
 C     1.106526    -4.083713    -2.692984
 H     1.227200    -5.146601    -2.472476
 C     0.599672    -2.303452    -4.238852
 H     0.317319    -1.978338    -5.243729
 C     0.767039    -3.660712    -3.975467
 H     0.619817    -4.391039    -4.774727
 C     3.886232     0.673829    -0.521791
 C     3.725144     1.241155     0.737905
 H     2.857481     0.984893     1.344951
 C     4.974951     1.001376    -1.343261
 C     5.101083     0.376049    -2.697682
 H     5.114042    -0.722830    -2.630305
 H     4.240781     0.636656    -3.335542
 H     6.017905     0.708614    -3.202938
 C     4.663840     2.160217     1.200660
 H     4.532980     2.607109     2.188570
 C     5.902864     1.921190    -0.851109
 H     6.758724     2.187738    -1.477272
 C     5.756076     2.501654     0.408371
 H     6.495899     3.219766     0.768609
 C     2.692668    -1.756144     1.441219
 C     3.798714    -2.415284     0.908930
 H     3.783007    -2.729367    -0.135512
 C     2.670901    -1.300432     2.768244
 C     1.480989    -0.569271     3.306554
 H     1.091439     0.159309     2.576911
 H     0.651167    -1.260728     3.519028
 H     1.731780    -0.043297     4.237446
 C     4.918478    -2.635837     1.706621
 H     5.790298    -3.143009     1.287531
 C     3.806987    -1.543290     3.545856
 H     3.815954    -1.191513     4.581068
 C     4.921964    -2.200496     3.029283
 H     5.798284    -2.364807     3.660181
 C    -2.169692    -0.086619     3.238260
 H    -2.376613     0.977227     3.112489
 C    -1.576059    -2.237629     2.254675
 C    -1.233146    -3.145807     1.111460
 H    -0.619386    -2.649888     0.352892
 H    -2.146819    -3.509347     0.614414
 H    -0.677620    -4.020927     1.475217
 C    -2.211801    -0.650536     4.507625
 H    -2.450048    -0.028798     5.373306
 C    -1.633168    -2.780793     3.545372
 H    -1.414499    -3.844517     3.670987
 C    -1.946080    -2.009542     4.659764
 H    -1.973276    -2.470256     5.650076
 C    -3.182385     2.167678    -0.037815
 C    -3.015895     2.084893    -1.420838
 H    -2.733931     1.132587    -1.872737
 C    -3.579100     3.360031     0.584627
 C    -3.746254     3.421498     2.071594
 H    -4.346519     2.577483     2.442338
 H    -2.767837     3.376141     2.577332
 H    -4.234272     4.358127     2.373075
 C    -3.220958     3.215585    -2.207421
 H    -3.082115     3.152600    -3.288882
 C    -3.785710     4.474977    -0.232517
 H    -4.091868     5.415103     0.234218
 C    -3.603300     4.415004    -1.613176
 H    -3.765748     5.305618    -2.223943
 C    -3.446265    -1.668312    -0.648998
 C    -4.460875    -1.505845     0.293567
 H    -4.355783    -0.775426     1.093470
 C    -3.571983    -2.580420    -1.710538
 C    -2.468260    -2.718509    -2.709233
 H    -2.264835    -1.761134    -3.212832
 H    -1.524894    -3.013508    -2.226200
 H    -2.715765    -3.467136    -3.473582
 C    -5.616858    -2.279191     0.194096
 H    -6.408714    -2.151257     0.935548
 C    -4.743630    -3.336046    -1.783024
 H    -4.853136    -4.051182    -2.602857
 C    -5.761836    -3.197639    -0.840496
 H    -6.667457    -3.802875    -0.919841
