  84
scf done:    -2843.560501
 C    -1.208002     1.388938    -3.015871
 H    -1.614472     0.774105    -3.837196
 H    -2.092377     1.790424    -2.493198
 C    -0.396024     2.541719    -3.594517
 H     0.433148     2.185070    -4.226682
 H    -1.018037     3.210458    -4.218205
 H     0.052586     3.169595    -2.805936
Ir     0.009056     0.269742    -1.675786
 C    -1.726774     1.464847     1.217701
 C    -3.444687     0.308926    -0.786366
 C    -1.877596    -1.421888     0.717503
 C     1.685201    -1.772389     0.858323
 C     3.410144    -0.226685    -0.830934
 C     1.883747     1.135437     1.064126
 P     1.702331    -0.239613    -0.139931
 P    -1.739543     0.206934    -0.108277
 C     0.905661    -0.405095    -3.150489
 O     1.338740    -0.983615    -4.050922
 C    -1.229073     1.212754     2.500732
 H    -0.948479     0.197812     2.785797
 C    -2.060141     2.783789     0.881204
 H    -2.431281     3.013021    -0.121834
 C    -1.078422     2.245755     3.419840
 H    -0.677696     2.023464     4.412623
 C    -1.915447     3.810470     1.809122
 H    -2.185786     4.831246     1.524952
 C    -1.413493     3.564418     3.092579
 C    -1.184407     4.677858     4.070255
 H    -1.711308     5.595059     3.772398
 H    -1.518442     4.401727     5.081622
 H    -0.109262     4.912928     4.135661
 C    -3.693033    -0.348370    -1.997845
 H    -2.857581    -0.804011    -2.536326
 C    -4.512274     0.893624    -0.097983
 H    -4.340858     1.402128     0.853248
 C    -4.979040    -0.416529    -2.520362
 H    -5.187659    -0.920921    -3.465394
 C    -5.805098     0.838487    -0.614261
 H    -6.649240     1.294232    -0.093692
 C    -6.020218     0.183044    -1.819919
 F    -7.253097     0.127955    -2.317057
 C    -1.306597    -2.525558     0.074379
 H    -0.719277    -2.353349    -0.833227
 C    -2.643174    -1.622992     1.872220
 H    -3.133245    -0.779016     2.363188
 C    -1.472026    -3.808605     0.583668
 H    -1.027418    -4.677565     0.097186
 C    -2.793566    -2.898888     2.407453
 H    -3.373300    -3.076247     3.314985
 C    -2.200291    -3.972669     1.753567
 F    -2.331800    -5.196689     2.270151
 C     2.046276    -2.976454     0.239469
 H     2.436366    -2.967444    -0.782287
 C     1.165230    -1.826416     2.156434
 H     0.862513    -0.907022     2.659674
 C     1.909237    -4.188519     0.908681
 H     2.203049    -5.114081     0.405691
 C     1.021430    -3.042448     2.816105
 H     0.603679    -3.056218     3.826571
 C     1.386312    -4.247747     2.205898
 C     1.165932    -5.557319     2.902099
 H     1.465909    -5.507951     3.959573
 H     0.097043    -5.826533     2.879063
 H     1.727254    -6.371589     2.422912
 C     3.676881     0.603856    -1.925687
 H     2.855794     1.156759    -2.389955
 C     4.472365    -0.915521    -0.231979
 H     4.291288    -1.559859     0.631041
 C     4.967895     0.736240    -2.426998
 H     5.186175     1.377213    -3.282846
 C     5.767613    -0.799029    -0.728011
 H     6.603346    -1.337873    -0.277947
 C     5.997917     0.026570    -1.822197
 F     7.234506     0.140015    -2.299666
 C     1.345505     2.375640     0.700357
 H     0.784547     2.454303    -0.237433
 C     2.618779     1.037541     2.251413
 H     3.080422     0.089284     2.535817
 C     1.509500     3.493267     1.510677
 H     1.087764     4.462020     1.240276
 C     2.771791     2.142201     3.084704
 H     3.329383     2.081792     4.021039
 C     2.208807     3.353793     2.701362
 F     2.339873     4.412017     3.505036
