  94
scf done:    -3024.540613
 C    -1.237806     1.292447    -2.944277
 H    -0.869044     1.042807    -3.953544
 H    -2.113242     0.636373    -2.797066
 C    -1.689140     2.749060    -2.900626
 H    -0.862302     3.440126    -3.130304
 H    -2.496834     2.954140    -3.626977
 H    -2.071720     3.032631    -1.906902
Ir     0.322578     0.883839    -1.512443
 C    -2.764406     1.022565     0.008928
 O    -1.955150    -1.432905    -1.012090
 O    -0.897165    -0.599566     1.204223
 C     2.395439    -1.324357     0.240460
 O     3.415271     1.051350    -0.538061
 O     1.953666     0.912421     1.542205
 P     1.958944     0.413977    -0.045743
 P    -1.365347    -0.088660    -0.293858
 C     1.517393     1.665235    -2.740973
 O     2.233821     2.111137    -3.516086
 C    -2.505800     2.087503     0.884963
 H    -1.557119     2.137005     1.424139
 C    -3.958989     1.009714    -0.720726
 H    -4.171360     0.212406    -1.432984
 C    -3.438899     3.099627     1.067744
 H    -3.248036     3.929244     1.750220
 C    -4.898759     2.021615    -0.546673
 H    -5.837868     2.026864    -1.102117
 C    -4.628972     3.049011     0.349122
 F    -5.527274     4.013168     0.517236
 C    -3.179519    -2.054619    -1.099881
 C    -4.058299    -2.162036    -0.025717
 H    -3.806607    -1.721979     0.938577
 C    -3.470150    -2.615401    -2.353787
 C    -2.487736    -2.492407    -3.477101
 H    -1.521468    -2.945788    -3.206179
 H    -2.863715    -2.983939    -4.384233
 H    -2.274185    -1.437836    -3.709755
 C    -5.269119    -2.829890    -0.199021
 H    -5.959038    -2.909821     0.643772
 C    -4.690033    -3.282415    -2.493320
 H    -4.935423    -3.726200    -3.461884
 C    -5.588443    -3.390346    -1.432497
 H    -6.535706    -3.916022    -1.570851
 C    -1.667976    -1.295165     2.111473
 C    -2.558153    -0.613785     2.939551
 H    -2.639346     0.469172     2.860776
 C    -1.502190    -2.686623     2.192218
 C    -0.517062    -3.392519     1.315998
 H    -0.734049    -3.222874     0.251454
 H     0.501437    -3.016595     1.491718
 H    -0.527045    -4.473799     1.505745
 C    -3.335207    -1.326397     3.851038
 H    -4.038795    -0.793033     4.494070
 C    -2.293586    -3.373040     3.118140
 H    -2.187826    -4.458566     3.190732
 C    -3.207991    -2.710613     3.935282
 H    -3.815684    -3.277607     4.643949
 C     2.103934    -2.224679    -0.791117
 H     1.579127    -1.857204    -1.679617
 C     3.030965    -1.783462     1.400486
 H     3.242726    -1.086160     2.212120
 C     2.456870    -3.566264    -0.681961
 H     2.235558    -4.286580    -1.471277
 C     3.386566    -3.122670     1.521306
 H     3.885929    -3.505191     2.413098
 C     3.098833    -3.993491     0.474591
 F     3.438100    -5.273998     0.590284
 C     4.637041     0.660737    -0.044348
 C     5.043109     1.040458     1.233712
 H     4.367718     1.634513     1.850084
 C     5.466637    -0.093580    -0.887679
 C     5.006814    -0.458127    -2.265258
 H     4.673736     0.431493    -2.820668
 H     5.809500    -0.949103    -2.831708
 H     4.147070    -1.145383    -2.225982
 C     6.293299     0.643776     1.704034
 H     6.612480     0.937175     2.706815
 C     6.716553    -0.473159    -0.390895
 H     7.378972    -1.061530    -1.031660
 C     7.130139    -0.118318     0.892303
 H     8.112058    -0.431498     1.254105
 C     1.096331     1.779074     2.163524
 C     0.420397     1.287873     3.281803
 H     0.559396     0.239090     3.547578
 C     0.959108     3.119125     1.761250
 C     1.663357     3.670355     0.560734
 H     2.686105     3.280265     0.464757
 H     1.128485     3.377571    -0.359778
 H     1.704991     4.767162     0.602824
 C    -0.411725     2.119093     4.023459
 H    -0.936392     1.721966     4.895308
 C     0.113469     3.932578     2.528454
 H    -0.001926     4.979103     2.233534
 C    -0.568105     3.451987     3.643823
 H    -1.213109     4.119436     4.219831
