 100
scf done:    -2904.723023
 C    -2.074386     1.740204     1.943997
 H    -2.088857     2.797594     2.250099
 H    -2.935601     1.617385     1.272347
 C    -2.240087     0.839041     3.162011
 H    -1.458664     1.016869     3.918869
 H    -3.212924     1.006565     3.660318
 H    -2.198933    -0.228066     2.889156
Ir    -0.214606     1.205545     1.016517
 C    -0.875452    -1.516580    -1.370780
 O    -2.827199    -0.681364     0.302191
 O    -2.023912     0.804569    -1.669552
 C     3.054165     1.762659    -0.191246
 O     2.784755     0.028994     1.771558
 O     2.042342    -0.751365    -0.562913
 P     1.884383     0.535642     0.459497
 P    -1.449640    -0.092946    -0.398898
 C     0.400010     2.902504     1.508755
 O     0.693064     4.005480     1.651792
 C    -0.821709    -1.459814    -2.767308
 H    -1.111330    -0.537930    -3.273560
 C    -0.495821    -2.688359    -0.685527
 C    -0.552947    -2.791892     0.808672
 H    -1.582772    -2.988855     1.146485
 H    -0.221841    -1.864907     1.302761
 H     0.085843    -3.606951     1.172187
 C    -0.423942    -2.571810    -3.503899
 H    -0.396539    -2.522620    -4.594816
 C    -0.089817    -3.788469    -1.447918
 H     0.210479    -4.703214    -0.930396
 C    -0.063620    -3.742140    -2.838817
 H     0.252286    -4.621608    -3.405131
 C    -3.729973    -1.575548    -0.202898
 C    -4.073560    -1.646063    -1.552704
 H    -3.610605    -0.970756    -2.271342
 C    -4.344582    -2.427481     0.716827
 H    -4.076069    -2.339353     1.771496
 C    -5.016400    -2.584614    -1.969065
 H    -5.276601    -2.633467    -3.029996
 C    -5.286374    -3.352495     0.282627
 H    -5.762391    -4.011294     1.014468
 C    -5.636719    -3.456445    -1.070151
 C    -6.631530    -4.481264    -1.532827
 H    -6.991822    -4.262716    -2.548058
 H    -7.505091    -4.526056    -0.864772
 H    -6.185211    -5.489558    -1.550612
 C    -2.580515     2.053188    -1.474952
 C    -3.957615     2.166832    -1.320521
 H    -4.577373     1.268245    -1.336182
 C    -1.769882     3.185360    -1.450300
 H    -0.691410     3.074126    -1.560591
 C    -4.523093     3.427454    -1.135521
 H    -5.606010     3.512546    -1.011905
 C    -2.349287     4.434591    -1.259798
 H    -1.706310     5.318447    -1.228929
 C    -3.733236     4.580224    -1.094428
 C    -4.338072     5.934458    -0.861809
 H    -4.060038     6.326297     0.130265
 H    -5.435496     5.899632    -0.910153
 H    -3.988106     6.665150    -1.607330
 C     4.030912     2.313619     0.645874
 H     4.141195     1.927450     1.660733
 C     2.875804     2.250502    -1.502941
 C     1.838610     1.687334    -2.429845
 H     0.890045     1.493811    -1.905054
 H     2.169763     0.728016    -2.858609
 H     1.639500     2.378084    -3.260627
 C     4.854492     3.337990     0.190055
 H     5.615236     3.761097     0.849817
 C     3.717949     3.279284    -1.936792
 H     3.594475     3.666508    -2.951802
 C     4.697245     3.819208    -1.107347
 H     5.336094     4.625509    -1.475740
 C     2.228083    -0.920797     2.599606
 C     1.220722    -0.572548     3.499649
 H     0.882350     0.465102     3.545477
 C     2.675424    -2.235832     2.519357
 H     3.455502    -2.492601     1.800136
 C     0.652297    -1.554404     4.304191
 H    -0.149291    -1.275316     4.993543
 C     2.106510    -3.204340     3.345083
 H     2.460604    -4.236738     3.277486
 C     1.082386    -2.886850     4.243320
 C     0.462215    -3.932240     5.124618
 H    -0.635403    -3.929683     5.036196
 H     0.700669    -3.752669     6.185549
 H     0.820194    -4.939360     4.868747
 C     3.185192    -1.226461    -1.151711
 C     3.019226    -1.899205    -2.363441
 H     2.011439    -2.007992    -2.765263
 C     4.459485    -1.087508    -0.602069
 H     4.595993    -0.576172     0.349630
 C     4.124644    -2.424036    -3.020960
 H     3.977510    -2.952071    -3.967574
 C     5.556613    -1.616628    -1.281869
 H     6.551580    -1.499939    -0.843517
 C     5.418013    -2.289709    -2.498081
 C     6.607528    -2.838737    -3.231319
 H     6.826092    -2.247403    -4.135913
 H     6.436570    -3.876286    -3.557590
 H     7.508924    -2.825923    -2.602474
