  98
scf done:    -2428.756101
 C    -1.026864    -3.383233    -0.788502
 H    -0.810848    -4.337344    -0.281458
 H    -2.119930    -3.276632    -0.725617
 C    -0.608786    -3.504344    -2.250731
 H     0.478342    -3.648093    -2.357054
 H    -1.100434    -4.356722    -2.756561
 H    -0.864813    -2.604458    -2.837785
Ir     0.046719    -1.755062     0.092635
 C    -1.115472     1.010448    -1.789631
 C    -3.203880    -0.904105    -1.273331
 C    -2.248693     0.774393     0.870583
 C     1.072627     1.281112     1.705380
 C     3.130663    -0.677432     1.405934
 C     2.231668     0.784287    -0.910125
 P     1.589319    -0.076674     0.583837
 P    -1.648497    -0.230322    -0.545291
 C     0.932456    -3.006731     1.119233
 O     1.392543    -3.758347     1.868159
 C    -0.985401     2.377334    -1.513676
 H    -1.310832     2.782599    -0.555292
 C    -0.662897     0.535576    -3.030337
 H    -0.724079    -0.532286    -3.256449
 C    -0.400671     3.244712    -2.436011
 H    -0.281185     4.308726    -2.223246
 C    -0.088643     1.389812    -3.964947
 H     0.277707     1.024768    -4.926042
 C     0.048333     2.737062    -3.647455
 F     0.640036     3.553075    -4.516244
 H    -2.898669    -1.577506    -2.091086
 H    -3.763826    -0.073327    -1.729358
 C    -4.044152    -1.663086    -0.248663
 H    -3.378418    -2.221493     0.430595
 H    -4.591848    -0.946351     0.387209
 C    -5.048386    -2.639327    -0.864359
 H    -4.470615    -3.353310    -1.481335
 C    -5.752990    -3.432342     0.229270
 H    -5.030562    -3.972291     0.860603
 H    -6.448749    -4.172005    -0.196094
 H    -6.337381    -2.764783     0.884735
 C    -6.053175    -1.936941    -1.770484
 H    -6.767407    -2.654714    -2.202661
 H    -5.563387    -1.415959    -2.607079
 H    -6.634959    -1.189478    -1.204401
 H    -1.374600     1.346374     1.214697
 H    -2.443422     0.046317     1.672397
 C    -3.443448     1.696012     0.631877
 H    -3.422140     2.100572    -0.393649
 H    -4.383068     1.122001     0.700588
 C    -3.504819     2.870084     1.613795
 H    -2.551623     3.425615     1.517395
 C    -4.639359     3.818682     1.248267
 H    -4.537447     4.192717     0.217320
 H    -4.666839     4.688796     1.922193
 H    -5.615100     3.310255     1.322850
 C    -3.616906     2.406830     3.061413
 H    -3.600262     3.263224     3.752475
 H    -2.786599     1.743330     3.343854
 H    -4.559411     1.857485     3.224876
 C     0.950073     2.619621     1.313300
 H     1.277024     2.937485     0.322369
 C     0.626659     0.917160     2.985962
 H     0.675999    -0.130980     3.294487
 C     0.377255     3.567538     2.161911
 H     0.262736     4.610534     1.860475
 C     0.070723     1.853613     3.849442
 H    -0.288303     1.577057     4.842404
 C    -0.060887     3.169637     3.417256
 F    -0.638958     4.062123     4.218848
 H     2.807382    -1.157060     2.344933
 H     3.748838     0.190385     1.683069
 C     3.896456    -1.675150     0.543876
 H     3.176865    -2.319919     0.010544
 H     4.455883    -1.135323    -0.241294
 C     4.864579    -2.567738     1.322349
 H     4.264176    -3.110749     2.075672
 C     5.491153    -3.601427     0.394811
 H     4.720448    -4.210629    -0.102153
 H     6.156762    -4.283861     0.945673
 H     6.091770    -3.113150    -0.391207
 C     5.933197    -1.762610     2.052720
 H     6.619927    -2.422879     2.604768
 H     5.497616    -1.059599     2.778969
 H     6.537598    -1.176115     1.339593
 H     1.380579     1.348586    -1.319223
 H     2.413938    -0.021796    -1.637746
 C     3.453212     1.684593    -0.752209
 H     3.417157     2.217617     0.212607
 H     4.369952     1.070657    -0.715321
 C     3.588967     2.721240    -1.871909
 H     2.663338     3.329640    -1.865228
 C     4.764109     3.652738    -1.603039
 H     4.668411     4.152143    -0.626052
 H     4.842561     4.433470    -2.375311
 H     5.714384     3.093202    -1.598762
 C     3.699047     2.076827    -3.248727
 H     3.759233     2.840936    -4.038605
 H     2.830331     1.441016    -3.474143
 H     4.603553     1.448956    -3.316376
