  78
scf done:    -3287.157694
 C    -1.646778     0.718817    -3.145072
 H    -1.667160     0.016904    -3.996162
 H    -2.629839     0.606260    -2.658088
 C    -1.495988     2.145516    -3.659465
 H    -0.578298     2.273622    -4.255894
 H    -2.346735     2.443484    -4.300320
 H    -1.445327     2.879467    -2.837184
Ir    -0.075453     0.298894    -1.772108
 C    -2.249025     0.412025     1.039618
 C    -3.129822    -1.394658    -1.028525
 C    -0.972371    -2.184601     0.529236
 C     2.300507    -0.742188     0.786561
 C     3.111753     1.505907    -0.800071
 C     1.068064     1.898049     1.054961
 P     1.603157     0.647266    -0.179998
 P    -1.609699    -0.673189    -0.287056
 C     1.078146     0.199532    -3.219587
 O     1.763225    -0.064420    -4.110578
 C    -1.725162     0.414646     2.336240
 H    -1.005574    -0.348813     2.634260
 C    -3.160996     1.415865     0.681900
 H    -3.566977     1.446894    -0.332991
 C    -2.095213     1.389378     3.257837
 H    -1.667908     1.400308     4.261275
 C    -3.547141     2.389514     1.595664
 H    -4.253100     3.172550     1.314360
 C    -3.001382     2.375558     2.879101
Cl    -3.417211     3.629176     3.998017
 C    -2.989241    -2.055998    -2.254055
 C    -4.365990    -1.413823    -0.375479
 C    -5.307112    -2.727206    -2.172654
 C    -5.451411    -2.074125    -0.950333
 C    -4.072223    -2.720148    -2.821626
 H    -2.020513    -2.035535    -2.760860
 H    -3.952702    -3.230337    -3.780232
 H    -6.159053    -3.243567    -2.621469
 H    -6.415268    -2.079634    -0.435619
 H    -4.487589    -0.912737     0.587480
 C     0.068541    -2.871063    -0.104555
 C    -1.578673    -2.743541     1.660579
 C    -0.067893    -4.626232     1.547703
 C    -1.114153    -3.951175     2.176740
 C     0.511754    -4.091156     0.399051
 H     0.524107    -2.422234    -0.992927
 H     1.327773    -4.619075    -0.098613
 H     0.299441    -5.570836     1.955317
 H    -1.581835    -4.374706     3.068877
 H    -2.423215    -2.241018     2.138276
 C     3.207548    -1.601477     0.149917
 H     3.573274    -1.360956    -0.852124
 C     1.830311    -1.091671     2.056823
 H     1.115493    -0.446754     2.569334
 C     3.643021    -2.768413     0.766848
 H     4.346364    -3.436644     0.267315
 C     2.248875    -2.262120     2.682086
 H     1.863477    -2.539638     3.663983
 C     3.150971    -3.097410     2.029630
Cl     3.627717    -4.587176     2.772167
 C     2.971450     2.393496    -1.872398
 C     4.356420     1.391880    -0.168891
 C     5.299650     3.009824    -1.696356
 C     5.444995     2.134897    -0.620686
 C     4.058821     3.141673    -2.317193
 H     1.997130     2.495553    -2.358009
 H     3.934799     3.827965    -3.158075
 H     6.154907     3.590592    -2.050010
 H     6.413639     2.029974    -0.125940
 H     4.481824     0.715387     0.679447
 C     0.018673     2.747363     0.685304
 C     1.725117     2.114279     2.271905
 C     0.249780     3.967796     2.753983
 C     1.306078     3.134844     3.122985
 C    -0.383994     3.780436     1.527164
 H    -0.481153     2.582115    -0.275641
 H    -1.208537     4.432294     1.231333
 H    -0.082851     4.763425     3.424523
 H     1.816485     3.287876     4.077027
 H     2.573070     1.487433     2.557625
