 104
scf done:    -2308.942182
 C     0.833555    -2.947266    -1.240185
 H     1.453908    -3.780076    -0.872401
 H    -0.166569    -3.384889    -1.386197
 C     1.392543    -2.473344    -2.578571
 H     2.415247    -2.075659    -2.475876
 H     1.435596    -3.285504    -3.328757
 H     0.788588    -1.662672    -3.022765
Ir     0.870094    -1.281044     0.093182
 C    -1.303441     0.902340    -1.857175
 C    -2.246243    -1.789214    -1.602776
 C    -2.310202    -0.027781     0.676672
 C     0.246101     1.540503     2.281009
 C     2.945482     0.717002     2.121095
 C     1.728948     2.057886    -0.159572
 P     1.406382     0.750421     1.099540
 P    -1.224461    -0.535739    -0.715394
 C     1.963990    -2.249374     1.216597
 O     2.525129    -2.876503     2.011410
 C    -1.580154     2.199264    -1.403809
 H    -1.804667     2.377989    -0.349710
 C    -1.018139     0.731757    -3.217748
 H    -0.791856    -0.263090    -3.608895
 C    -1.574728     3.280118    -2.281845
 H    -1.798585     4.280174    -1.899408
 C    -1.014797     1.815532    -4.091373
 H    -0.789436     1.649996    -5.148550
 C    -1.289205     3.111959    -3.641483
 C    -1.239480     4.286786    -4.572543
 H    -2.010664     5.031366    -4.326075
 H    -0.262773     4.795434    -4.507120
 H    -1.378998     3.979655    -5.618677
 H    -3.120564    -1.287369    -2.048004
 H    -1.632652    -2.169306    -2.435204
 C    -2.663273    -2.942295    -0.696672
 H    -1.802494    -3.250078    -0.078080
 H    -3.436297    -2.598159     0.011337
 C    -3.189766    -4.142478    -1.470109
 H    -2.402976    -4.498267    -2.160020
 H    -4.033779    -3.828796    -2.111648
 C    -3.631178    -5.291689    -0.575074
 H    -2.783570    -5.592135     0.065550
 H    -4.414698    -4.932449     0.115892
 C    -4.142826    -6.496645    -1.347576
 H    -4.452732    -7.310243    -0.674319
 H    -3.366741    -6.898259    -2.018816
 H    -5.011613    -6.232288    -1.972069
 H    -2.237663    -0.845012     1.411720
 H    -1.803435     0.819721     1.159376
 C    -3.760647     0.322280     0.376009
 H    -3.821050     1.000354    -0.492113
 H    -4.321705    -0.583248     0.089787
 C    -4.429678     0.980966     1.575951
 H    -3.861808     1.890575     1.844886
 H    -4.342778     0.313969     2.453170
 C    -5.890698     1.342294     1.354918
 H    -5.972004     1.995438     0.467956
 H    -6.458599     0.428686     1.104921
 C    -6.523762     2.027451     2.555390
 H    -7.580539     2.276418     2.375486
 H    -5.998987     2.965230     2.801016
 H    -6.481704     1.384443     3.449620
 C    -0.264614     0.731784     3.307531
 H     0.079623    -0.303596     3.392175
 C    -0.236671     2.847912     2.167975
 H     0.147467     3.514440     1.392980
 C    -1.238158     1.209918     4.174986
 H    -1.625887     0.556027     4.961312
 C    -1.229004     3.316485     3.030278
 H    -1.602203     4.338015     2.913134
 C    -1.756025     2.506237     4.040133
 C    -2.866233     2.987342     4.926659
 H    -2.928442     4.084745     4.938898
 H    -3.839327     2.604862     4.574207
 H    -2.736542     2.638298     5.961755
 H     3.079698     1.706238     2.589730
 H     2.736276     0.003491     2.936173
 C     4.190820     0.287789     1.356409
 H     3.931774    -0.532116     0.663706
 H     4.540890     1.121175     0.722979
 C     5.320902    -0.168378     2.268097
 H     4.968301    -1.028920     2.864570
 H     5.558757     0.629774     2.995268
 C     6.582909    -0.562196     1.513858
 H     6.331416    -1.352240     0.784534
 H     6.931382     0.297879     0.914406
 C     7.703755    -1.041718     2.421776
 H     8.600782    -1.321429     1.848636
 H     7.393261    -1.923406     3.005087
 H     7.998512    -0.260060     3.140695
 H     0.750128     2.498233    -0.404823
 H     2.347273     2.860955     0.277318
 C     2.335636     1.505547    -1.444931
 H     3.363305     1.149379    -1.266567
 H     1.763070     0.607895    -1.741091
 C     2.321329     2.509937    -2.586539
 H     2.940582     3.387964    -2.324614
 H     1.291992     2.888313    -2.712584
 C     2.797732     1.921614    -3.906500
 H     3.831375     1.550182    -3.791263
 H     2.185540     1.032028    -4.137379
 C     2.728585     2.903829    -5.064174
 H     3.082136     2.453617    -6.004290
 H     3.345311     3.796609    -4.870870
 H     1.694858     3.248925    -5.228730
