  88
scf done:    -3144.349153
 C    -1.843241     2.113027     1.640826
 H    -1.764954     3.202436     1.776119
 H    -2.785832     1.940541     1.101842
 C    -1.870644     1.416184     2.995742
 H    -0.940939     1.576467     3.565449
 H    -2.702476     1.784080     3.624578
 H    -2.007535     0.328018     2.889868
Ir    -0.139329     1.314156     0.629483
 C    -1.096933    -1.952710    -0.769396
 O    -2.930264    -0.461324     0.526642
 O    -2.028774     0.270332    -1.789626
 C     2.949578     1.130434    -1.205394
 O     2.944518     0.630588     1.374044
 O     1.948549    -1.195700    -0.159286
 P     1.885712     0.437587     0.095686
 P    -1.510246    -0.246645    -0.297565
 C     0.548824     3.054026     0.575350
 O     0.886243     4.136555     0.381411
 C    -1.107234    -2.360402    -2.107400
 H    -1.345327    -1.632073    -2.883919
 C    -0.782635    -2.869244     0.255171
 C    -0.761206    -2.468158     1.699715
 H    -1.782456    -2.413888     2.108391
 H    -0.302234    -1.477127     1.844293
 H    -0.198319    -3.195812     2.299920
 C    -0.836303    -3.683510    -2.445061
 H    -0.855692    -3.994635    -3.491868
 C    -0.515469    -4.192767    -0.108625
 H    -0.272773    -4.915309     0.674822
 C    -0.550316    -4.603785    -1.438691
 H    -0.341905    -5.646530    -1.689860
 C    -3.905753    -1.393445     0.306344
 C    -4.307032    -1.792371    -0.970780
 H    -3.829994    -1.362811    -1.851125
 C    -4.530470    -1.924544     1.436603
 H    -4.213021    -1.579607     2.422452
 C    -5.320221    -2.737966    -1.111071
 H    -5.648773    -3.069496    -2.097574
 C    -5.546376    -2.864379     1.297268
 H    -6.049584    -3.291457     2.166454
 C    -5.925765    -3.265774     0.021591
 F    -6.894761    -4.170454    -0.116571
 C    -2.393105     1.590328    -1.970082
 C    -3.712072     1.971241    -1.737616
 H    -4.436717     1.227276    -1.401998
 C    -1.443971     2.522466    -2.384526
 H    -0.412838     2.207208    -2.542662
 C    -4.090414     3.298684    -1.924884
 H    -5.115426     3.628768    -1.748720
 C    -1.817326     3.849627    -2.571188
 H    -1.093708     4.604070    -2.883679
 C    -3.136296     4.220952    -2.336109
 F    -3.494539     5.491977    -2.511811
 C     4.007964     1.978686    -0.857191
 H     4.239762     2.135216     0.197159
 C     2.620514     0.921715    -2.562015
 C     1.496293     0.023085    -2.982992
 H     0.602524     0.168770    -2.359101
 H     1.779595    -1.037173    -2.893716
 H     1.215497     0.209350    -4.028614
 C     4.761138     2.611624    -1.840730
 H     5.586332     3.268450    -1.556972
 C     3.393593     1.569510    -3.530788
 H     3.151436     1.414149    -4.585538
 C     4.452540     2.403519    -3.182387
 H     5.034877     2.897085    -3.964068
 C     2.443978     0.507996     2.649583
 C     2.229789     1.654733     3.413271
 H     2.448214     2.632418     2.981309
 C     2.169796    -0.755036     3.173722
 H     2.350267    -1.639330     2.560260
 C     1.733451     1.540245     4.708267
 H     1.550855     2.419890     5.327668
 C     1.667359    -0.873051     4.467130
 H     1.440089    -1.847210     4.903487
 C     1.452938     0.277004     5.216830
 F     0.969092     0.166683     6.452725
 C     3.028257    -1.932904    -0.574721
 C     2.751057    -3.041443    -1.376304
 H     1.713467    -3.258375    -1.632211
 C     4.343495    -1.635320    -0.211742
 H     4.553846    -0.779468     0.428725
 C     3.787113    -3.853554    -1.825181
 H     3.593525    -4.725983    -2.451718
 C     5.381606    -2.445397    -0.667463
 H     6.418646    -2.233400    -0.401641
 C     5.094204    -3.542188    -1.468890
 F     6.090379    -4.315442    -1.901278
