  94
scf done:    -3745.101642
 C    -1.244158    -2.157648     2.547696
 H    -0.776307    -2.295730     3.535421
 H    -2.110120    -1.500095     2.736598
 C    -1.730167    -3.494488     1.999158
 H    -0.898184    -4.197661     1.831858
 H    -2.443554    -3.985485     2.686301
 H    -2.251083    -3.377012     1.034283
Ir     0.176612    -1.324973     1.158343
 C    -3.100616    -0.221328     0.311086
 O    -1.827869     1.086241     2.186291
 O    -1.058844     1.444129    -0.235316
 C     2.644925     0.752641    -0.415115
 O     2.654177    -1.800814    -0.999990
 O     0.676462    -0.362820    -1.913049
 P     1.523636    -0.669916    -0.525427
 P    -1.432550     0.225198     0.838697
 C     1.523430    -2.247486     2.111244
 O     2.340391    -2.681609     2.789666
 C    -3.196539    -1.191289    -0.692186
 H    -2.293076    -1.709881    -1.028263
 C    -4.248994     0.442859     0.751576
 H    -4.167658     1.198572     1.534654
 C    -4.425105    -1.478823    -1.277860
 H    -4.512693    -2.225860    -2.068006
 C    -5.482532     0.158640     0.176440
 H    -6.386027     0.676621     0.501648
 C    -5.558469    -0.790077    -0.844133
Cl    -7.084873    -1.108126    -1.593557
 C    -0.897692     1.468900     3.125296
 C     0.399670     1.829364     2.770286
 H     0.707660     1.804746     1.724216
 C    -1.309927     1.491929     4.455395
 H    -2.329966     1.194111     4.702662
 C     1.324610     2.202227     3.752697
 C     2.726934     2.560511     3.356002
 H     3.153837     1.798038     2.686581
 H     2.760119     3.516300     2.808640
 H     3.381598     2.654627     4.233385
 C    -0.397446     1.878305     5.431895
 H    -0.706182     1.896053     6.479796
 C     0.909190     2.224474     5.087326
 H     1.619649     2.510795     5.866802
 C    -1.932204     2.471249    -0.513319
 C    -2.853961     2.318667    -1.545477
 H    -2.881137     1.374248    -2.093652
 C    -1.872496     3.649027     0.229645
 H    -1.145892     3.741057     1.038999
 C    -3.756206     3.343198    -1.850154
 C    -4.778835     3.143001    -2.930406
 H    -4.305443     2.851628    -3.880861
 H    -5.480337     2.336807    -2.659809
 H    -5.364494     4.055565    -3.107307
 C    -2.757721     4.677373    -0.081521
 H    -2.723398     5.608401     0.489126
 C    -3.692005     4.526225    -1.106357
 H    -4.386920     5.339442    -1.330704
 C     3.988319     0.595475    -0.060982
 H     4.406893    -0.407307     0.041164
 C     2.114581     2.042201    -0.554127
 H     1.064208     2.171780    -0.820993
 C     4.793763     1.709340     0.159979
 H     5.841474     1.596112     0.442763
 C     2.913484     3.159283    -0.342537
 H     2.506018     4.165459    -0.451418
 C     4.248166     2.984792     0.022402
Cl     5.233147     4.373127     0.333411
 C     2.355235    -3.138000    -0.896600
 C     1.110923    -3.628793    -1.288938
 H     0.379886    -2.944667    -1.725744
 C     3.325408    -3.987259    -0.370076
 H     4.288212    -3.575803    -0.063054
 C     0.799689    -4.982977    -1.124725
 C    -0.567602    -5.484627    -1.485739
 H    -1.306701    -5.157567    -0.735764
 H    -0.894958    -5.092424    -2.460581
 H    -0.598510    -6.582139    -1.529300
 C     3.026758    -5.338778    -0.227319
 H     3.777417    -6.014966     0.188336
 C     1.774381    -5.832426    -0.591903
 H     1.549115    -6.893619    -0.460026
 C     1.143958     0.286006    -3.029988
 C     2.378578    -0.017229    -3.597053
 H     3.001041    -0.789371    -3.141558
 C     0.319771     1.265445    -3.584620
 H    -0.634616     1.489047    -3.106585
 C     2.817079     0.668753    -4.736464
 C     4.160293     0.351836    -5.327003
 H     4.969248     0.616106    -4.627013
 H     4.258167    -0.723627    -5.541751
 H     4.330594     0.903044    -6.262107
 C     0.749812     1.939343    -4.722051
 H     0.113674     2.709768    -5.164428
 C     1.988589     1.647508    -5.293208
 H     2.318586     2.188508    -6.183614
