  96
scf done:    -2603.934972
 C     1.044306    -2.903475    -1.675871
 H     0.771155    -3.369238    -2.636108
 H     2.125746    -2.707939    -1.758090
 C     0.755299    -3.887465    -0.549077
 H    -0.316836    -4.128087    -0.484475
 H     1.298607    -4.842651    -0.678155
 H     1.034482    -3.490225     0.442603
Ir    -0.116074    -1.157100    -1.287788
 C     1.184515    -0.624598     2.022294
 C     3.212443    -1.185329     0.086008
 C     1.904738     1.393852     0.076003
 C    -1.581986     2.011212    -0.147961
 C    -3.240620     0.393089    -1.750905
 C    -2.604683    -0.445813     0.984666
 P    -1.814577     0.237741    -0.546515
 P     1.534840    -0.418465     0.232222
 C    -0.870006    -1.381883    -2.958159
 O    -1.236272    -1.431168    -4.053240
 C     0.380663     0.304710     2.697087
 H     0.020275     1.198178     2.181158
 C     1.623644    -1.748044     2.730915
 H     2.249935    -2.497890     2.244027
 C     0.033401     0.116106     4.030787
 H    -0.588384     0.863408     4.532100
 C     1.268017    -1.935191     4.065157
 H     1.627323    -2.822621     4.593495
 C     0.463491    -1.012457     4.741278
 C     0.047752    -1.234952     6.165053
 H     0.748525    -1.898136     6.691638
 H    -0.013481    -0.287593     6.720424
 H    -0.948780    -1.705119     6.212001
 H     3.056828    -2.276811     0.062697
 H     3.764610    -0.947745     1.007530
 C     4.019745    -0.745957    -1.108678
 C     5.407135    -0.613122    -0.974062
 H     5.871973    -0.818254    -0.005961
 C     3.439632    -0.454357    -2.349715
 H     2.355294    -0.554741    -2.475102
 C     6.195805    -0.196848    -2.042565
 H     7.275940    -0.095436    -1.911371
 C     4.227602    -0.028320    -3.418359
 H     3.753668     0.199101    -4.376455
 C     5.607084     0.103494    -3.270645
 H     6.222391     0.437232    -4.109746
 H     1.031689     1.920830     0.485993
 H     1.888673     1.589383    -1.004668
 C     3.188617     1.885518     0.679822
 C     4.231017     2.307755    -0.154550
 H     4.102279     2.256606    -1.238785
 C     3.384510     1.943251     2.067212
 H     2.586651     1.627732     2.741417
 C     5.433512     2.768966     0.375459
 H     6.232269     3.086689    -0.298884
 C     4.589016     2.398655     2.598722
 H     4.720369     2.434088     3.683088
 C     5.619716     2.812476     1.755489
 H     6.563509     3.170486     2.173924
 C    -0.880875     2.778314    -1.089573
 H    -0.478435     2.286129    -1.980946
 C    -2.073473     2.648639     0.994263
 H    -2.652634     2.092615     1.734009
 C    -0.678346     4.138183    -0.892325
 H    -0.129075     4.715573    -1.641342
 C    -1.849231     4.010239     1.197455
 H    -2.240574     4.488499     2.099651
 C    -1.149657     4.779100     0.262993
 C    -0.884606     6.237358     0.493126
 H    -1.538282     6.648889     1.274903
 H     0.158314     6.399998     0.811957
 H    -1.036195     6.823048    -0.425942
 H    -3.484479    -0.631814    -2.066328
 H    -2.805040     0.893237    -2.629537
 C    -4.441125     1.122422    -1.238861
 C    -4.512126     2.521649    -1.294724
 H    -3.694093     3.082116    -1.753295
 C    -5.507296     0.428569    -0.649570
 H    -5.482254    -0.663792    -0.608269
 C    -5.606757     3.203303    -0.769811
 H    -5.640128     4.294080    -0.825250
 C    -6.603618     1.108887    -0.122813
 H    -7.424213     0.545880     0.328420
 C    -6.655482     2.500518    -0.177682
 H    -7.514702     3.035805     0.233295
 H    -3.635400    -0.060538     1.057240
 H    -2.040838    -0.034346     1.832759
 C    -2.566253    -1.947586     1.060152
 C    -1.834637    -2.575557     2.074318
 H    -1.283623    -1.965336     2.792357
 C    -3.254443    -2.754033     0.143980
 H    -3.825779    -2.294303    -0.664817
 C    -1.796320    -3.964272     2.176949
 H    -1.212424    -4.428806     2.975286
 C    -3.218669    -4.142249     0.244177
 H    -3.760355    -4.750515    -0.483994
 C    -2.490205    -4.754274     1.263637
 H    -2.458023    -5.843626     1.338951
