  62
scf done:    -2677.923577
 C    -3.700406     1.442976     0.056733
 H    -4.607984     1.061421     0.551326
 H    -3.444488     2.355360     0.620946
 C    -4.033033     1.795267    -1.389717
 H    -4.380126     0.912490    -1.949834
 H    -4.831125     2.558193    -1.461208
 H    -3.162239     2.194851    -1.937422
Ir    -2.137969    -0.019997     0.004514
 C     1.123351     1.602523    -0.353740
 C    -1.019755     3.425327    -0.371145
 C    -0.350934     1.989547     2.077001
 C     1.016012    -1.674578     0.310123
 C    -1.146860    -3.426787    -0.210380
 C    -0.177112    -1.729986    -2.351852
 P    -0.605411    -1.688367    -0.552267
 P    -0.601128     1.736728     0.267771
 C    -3.355210    -1.186196     0.751789
 O    -4.062935    -1.840623     1.390901
 C     2.251493     1.609338     0.472174
 H     2.148844     1.689046     1.554583
 C     1.312994     1.486640    -1.737662
 H     0.445044     1.483585    -2.404163
 C     3.532468     1.481483    -0.058755
 H     4.404769     1.453588     0.596283
 C     2.585566     1.361931    -2.284825
 H     2.728115     1.263305    -3.362323
 C     3.691410     1.347372    -1.434470
Cl     5.276509     1.116278    -2.093341
 H    -2.074118     3.607945    -0.115987
 C    -0.128524     4.561073     0.100901
 H     0.933693     4.360823    -0.109030
 H    -0.231138     4.739299     1.181894
 H    -0.990841     3.333078    -1.468872
 H    -0.397425     5.499163    -0.408588
 H     0.384433     2.797800     2.218881
 C    -1.629738     2.275813     2.846681
 H    -2.356999     1.463690     2.704417
 H    -2.105823     3.212272     2.517533
 H     0.114393     1.059196     2.438654
 H    -1.414547     2.373993     3.921419
 C     0.988244    -1.564463     1.708207
 H     0.022267    -1.511709     2.220251
 C     2.258601    -1.703568    -0.330238
 H     2.324860    -1.757490    -1.417057
 C     2.163377    -1.483630     2.447965
 H     2.138381    -1.388466     3.534898
 C     3.443969    -1.619156     0.395709
 H     4.408641    -1.608754    -0.114344
 C     3.388723    -1.501922     1.781166
Cl     4.858683    -1.323041     2.681498
 H    -1.322906    -3.471124     0.876726
 C    -2.392361    -3.858830    -0.968466
 H    -2.230753    -3.868475    -2.056674
 H    -3.242752    -3.193406    -0.768807
 H    -0.297725    -4.097083    -0.419945
 H    -2.688390    -4.875875    -0.669482
 H     0.481181    -0.862863    -2.516561
 C     0.431449    -3.002047    -2.928023
 H    -0.278756    -3.840258    -2.906197
 H     1.331043    -3.327103    -2.386265
 H    -1.120248    -1.484555    -2.866205
 H     0.717267    -2.846376    -3.979935
