  60
scf done:    -1981.180459
 C     1.284054    -2.768702    -1.315684
 H     0.666682    -3.675470    -1.437490
 H     1.348836    -2.303308    -2.312622
 C     2.685090    -3.173767    -0.873338
 H     2.690784    -3.637970     0.126615
 H     3.140408    -3.901545    -1.570068
 H     3.358553    -2.304736    -0.834987
Ir     0.197855    -1.437772    -0.033871
 C     1.900032     1.670457    -0.003591
 O     2.452054    -0.041521    -2.024977
 O     0.268693     1.329825    -2.026565
 C    -2.574738     0.617234    -0.097952
 O    -2.297620    -1.065106     1.990661
 O    -0.976617     1.135873     1.986324
 P    -1.339015    -0.142405     1.019779
 P     1.190703     0.370775    -1.066874
 C    -0.132189    -2.922840     1.067398
 O    -0.224493    -3.810254     1.788873
 C     1.464012     2.994118    -0.126166
 H     0.717283     3.231829    -0.884769
 C     2.883948     1.330448     0.950044
 C     3.394722    -0.070672     1.094908
 H     4.037314    -0.349384     0.245361
 H     2.559432    -0.796993     1.101747
 H     3.978862    -0.187906     2.017557
 C     1.975251     3.990970     0.700531
 H     1.621200     5.019390     0.599082
 C     3.387320     2.350669     1.764679
 H     4.146762     2.100138     2.510257
 C     2.939119     3.664775     1.651499
 H     3.348335     4.436710     2.307904
 C     3.242494     0.940676    -2.660390
 H     2.620341     1.649891    -3.229992
 H     3.841460     1.508191    -1.928521
 H     3.917669     0.416916    -3.350273
 C    -0.632182     0.712526    -2.931205
 H    -0.167288     0.618531    -3.925330
 H    -0.926236    -0.288445    -2.573835
 H    -1.530134     1.341428    -2.999034
 C    -3.245399    -0.361496    -0.850498
 H    -3.011722    -1.414925    -0.667061
 C    -2.847600     1.982849    -0.323303
 C    -2.214383     3.109425     0.440830
 H    -1.120190     3.040742     0.439448
 H    -2.515031     3.089774     1.497885
 H    -2.512622     4.075124     0.009590
 C    -4.180930    -0.020960    -1.819995
 H    -4.691099    -0.801068    -2.389227
 C    -3.786041     2.300734    -1.317247
 H    -4.004188     3.355434    -1.506050
 C    -4.446977     1.325461    -2.057866
 H    -5.171840     1.620088    -2.820740
 C    -3.394378    -0.498669     2.673365
 H    -3.077604     0.332110     3.324982
 H    -4.156243    -0.122277     1.969580
 H    -3.838690    -1.291086     3.290777
 C     0.097783     1.018193     2.897317
 H    -0.280970     0.781419     3.904735
 H     0.795199     0.224317     2.582094
 H     0.634412     1.976901     2.922330
