  96
scf done:    -2603.931682
 C    -1.213056     1.373089    -3.021655
 H    -1.616848     0.753236    -3.840632
 H    -2.100307     1.773054    -2.502737
 C    -0.404237     2.526700    -3.603472
 H     0.429219     2.170118    -4.230223
 H    -1.026060     3.190787    -4.232946
 H     0.039541     3.159135    -2.815702
Ir     0.006601     0.260458    -1.677299
 C    -1.729017     1.497810     1.193693
 C    -3.443414     0.303913    -0.788935
 C    -1.885684    -1.396766     0.752123
 C     1.685866    -1.786333     0.847992
 C     3.403800    -0.233502    -0.837510
 C     1.891445     1.118887     1.070273
 P     1.697908    -0.246589    -0.141100
 P    -1.739019     0.212728    -0.106833
 C     0.902371    -0.424651    -3.146459
 O     1.333144    -1.010681    -4.044155
 C    -1.240252     1.275405     2.483042
 H    -0.946161     0.269973     2.788144
 C    -2.068348     2.809030     0.826443
 H    -2.426837     3.013553    -0.186382
 C    -1.116576     2.328125     3.387557
 H    -0.724279     2.129215     4.388394
 C    -1.950303     3.851965     1.735909
 H    -2.227583     4.864524     1.428672
 C    -1.472304     3.631781     3.035345
 C    -1.329555     4.771859     3.999420
 H    -2.284799     5.302441     4.137380
 H    -0.988318     4.426495     4.985309
 H    -0.600286     5.511467     3.631600
 C    -3.693547    -0.375507    -1.987318
 H    -2.858906    -0.844710    -2.515630
 C    -4.513044     0.899858    -0.117593
 H    -4.346912     1.423520     0.826530
 C    -4.981347    -0.446427    -2.502220
 H    -5.154935    -0.980911    -3.440483
 C    -5.801834     0.830456    -0.644826
 H    -6.626902     1.306032    -0.107022
 C    -6.059924     0.160478    -1.844001
 C    -7.442024     0.104262    -2.425288
 H    -8.200797     0.421848    -1.696289
 H    -7.526842     0.764950    -3.303918
 H    -7.694224    -0.912968    -2.761646
 C    -2.659123    -1.568818     1.906506
 H    -3.141689    -0.709684     2.378678
 C    -1.329818    -2.520761     0.136912
 H    -0.737269    -2.379093    -0.772279
 C    -2.830988    -2.835668     2.452167
 H    -3.430770    -2.952680     3.359456
 C    -1.526030    -3.788330     0.676946
 H    -1.081912    -4.655322     0.181546
 C    -2.265981    -3.967615     1.848854
 C    -2.442226    -5.326311     2.459823
 H    -2.160955    -6.123794     1.757667
 H    -1.812883    -5.437556     3.358245
 H    -3.483918    -5.496119     2.771913
 C     2.048792    -2.984748     0.215163
 H     2.418468    -2.963886    -0.813908
 C     1.184093    -1.852551     2.150137
 H     0.870768    -0.940243     2.660115
 C     1.944834    -4.198887     0.881179
 H     2.242706    -5.118194     0.368480
 C     1.073420    -3.075030     2.809721
 H     0.671589    -3.099307     3.826221
 C     1.456443    -4.268253     2.193478
 C     1.335604    -5.588668     2.894856
 H     0.958322    -5.468005     3.920014
 H     0.646066    -6.260791     2.359374
 H     2.308044    -6.103175     2.950399
 C     3.670904     0.602542    -1.926739
 H     2.850570     1.162976    -2.383628
 C     4.469176    -0.924192    -0.249779
 H     4.294399    -1.570199     0.613524
 C     4.963423     0.728930    -2.424567
 H     5.146202     1.388772    -3.277291
 C     5.759134    -0.799738    -0.758586
 H     6.576123    -1.354098    -0.287831
 C     6.030905     0.023870    -1.856673
 C     7.415400     0.129097    -2.425092
 H     7.545715    -0.566522    -3.271103
 H     7.619495     1.141501    -2.803597
 H     8.180374    -0.119103    -1.675359
 C     2.641258     1.010200     2.247536
 H     3.097723     0.056054     2.521077
 C     1.365805     2.366715     0.723733
 H     0.794319     2.461249    -0.206005
 C     2.820701     2.115476     3.071781
 H     3.403802     2.009956     3.991331
 C     1.564974     3.473538     1.543299
 H     1.142371     4.438439     1.252088
 C     2.283492     3.365901     2.737208
 C     2.465836     4.544566     3.647286
 H     3.501746     4.615689     4.012131
 H     2.216311     5.487642     3.140766
 H     1.815494     4.461617     4.533814
