  90
scf done:    -3444.302581
 C    -1.582505     0.730854    -3.174350
 H    -1.648016     0.041151    -4.032988
 H    -2.577073     0.692831    -2.700429
 C    -1.312203     2.145926    -3.672194
 H    -0.368944     2.211852    -4.238043
 H    -2.118339     2.509346    -4.336747
 H    -1.236172     2.869803    -2.842377
Ir    -0.050682     0.193874    -1.796948
 C    -2.178526     0.747424     0.983938
 C    -3.251758    -1.120192    -0.933998
 C    -1.185683    -2.011395     0.681731
 C     2.199636    -0.951723     0.830339
 C     3.261006     1.087919    -0.879633
 C     1.262617     1.830460     0.912655
 P     1.662820     0.443745    -0.225118
 P    -1.661799    -0.504047    -0.245708
 C     1.057972    -0.138025    -3.243986
 O     1.687967    -0.544491    -4.122597
 C    -1.628326     0.825272     2.267128
 H    -0.972283     0.032855     2.627623
 C    -3.007303     1.790163     0.544689
 H    -3.432508     1.760644    -0.462186
 C    -1.889298     1.912258     3.095601
 H    -1.438563     1.980081     4.086313
 C    -3.288871     2.874494     1.367272
 H    -3.932532     3.685244     1.022834
 C    -2.715779     2.933301     2.636858
Cl    -2.999667     4.318509     3.638924
 C    -3.198678    -1.843091    -2.128717
 H    -2.248291    -1.927550    -2.662389
 C    -4.464711    -1.007535    -0.248107
 H    -4.507881    -0.456601     0.695163
 C    -4.354779    -2.437320    -2.626526
 H    -4.314688    -3.002279    -3.560868
 C    -5.635115    -1.591320    -0.743310
 C    -6.940099    -1.440235    -0.016243
 H    -7.473954    -2.400076     0.054362
 H    -6.791410    -1.056733     1.002993
 H    -7.606640    -0.736804    -0.542011
 C    -5.561163    -2.309808    -1.942624
 H    -6.464432    -2.777436    -2.344845
 C    -1.792043    -2.386670     1.884188
 H    -2.522869    -1.733925     2.366554
 C    -0.298738    -2.889568     0.049710
 H     0.159595    -2.571949    -0.893413
 C    -1.468550    -3.612599     2.462035
 H    -1.924892    -3.901645     3.412075
 C    -0.001175    -4.139839     0.597913
 C     0.894747    -5.107930    -0.116479
 H     0.304276    -5.923815    -0.565143
 H     1.452729    -4.616050    -0.924479
 H     1.616116    -5.568131     0.575315
 C    -0.583005    -4.478771     1.826209
 H    -0.338776    -5.439567     2.287563
 C     3.028522    -1.927361     0.258340
 H     3.436075    -1.774308    -0.744619
 C     1.676327    -1.186351     2.105990
 H     1.022265    -0.448528     2.570818
 C     3.336919    -3.096800     0.942764
 H     3.981869    -3.853760     0.494058
 C     1.961896    -2.360186     2.796308
 H     1.530861    -2.548449     3.780241
 C     2.787923    -3.311655     2.206053
Cl     3.098999    -4.804527     3.030215
 C     3.239862     1.876831    -2.031593
 H     2.297223     2.031846    -2.562385
 C     4.468000     0.913919    -0.191120
 H     4.490907     0.312920     0.721655
 C     4.416625     2.465021    -2.491714
 H     4.396784     3.079165    -3.395132
 C     5.656288     1.490248    -0.646163
 C     6.949086     1.279793     0.087745
 H     7.419915     2.239967     0.350735
 H     6.797283     0.711146     1.015792
 H     7.671784     0.724726    -0.531832
 C     5.613156     2.269170    -1.810194
 H     6.532542     2.729418    -2.183413
 C     1.878784     2.030801     2.151261
 H     2.603323     1.309052     2.534307
 C     0.379494     2.799250     0.421226
 H    -0.086276     2.633776    -0.557792
 C     1.570787     3.167356     2.897050
 H     2.037770     3.317167     3.873775
 C     0.091042     3.960764     1.141234
 C    -0.808795     5.019773     0.576455
 H    -1.367249     4.647872    -0.293442
 H    -1.530296     5.372426     1.328608
 H    -0.222266     5.894028     0.249262
 C     0.685681     4.120245     2.399441
 H     0.452227     5.007553     2.994243
