  84
scf done:    -2446.786782
 C    -1.416447     1.495193    -2.837141
 H    -1.678923     0.920989    -3.742258
 H    -2.371275     1.641140    -2.304819
 C    -0.848398     2.851727    -3.237503
 H     0.044125     2.752410    -3.876255
 H    -1.585278     3.457991    -3.797004
 H    -0.546031     3.448822    -2.360349
Ir    -0.017191     0.475108    -1.598976
 C    -1.991338     0.910043     1.341801
 C    -3.425400    -0.280408    -0.861997
 C    -1.592657    -1.866333     0.477342
 C     1.981586    -1.522214     0.715927
 C     3.401166     0.540726    -0.689791
 C     1.631851     1.317843     1.308226
 P     1.717718     0.106686    -0.072743
 P    -1.742108    -0.143101    -0.130815
 C     1.025200     0.203207    -3.106630
 O     1.582698    -0.147641    -4.055235
 C    -1.486204     0.583991     2.604601
 H    -1.029855    -0.392759     2.771893
 C    -2.554459     2.179823     1.156870
 H    -2.935361     2.468683     0.173160
 C    -1.552548     1.496284     3.652516
 H    -1.140554     1.221424     4.627247
 C    -2.627498     3.082674     2.212536
 H    -3.076935     4.065770     2.046688
 C    -2.122972     2.761389     3.478095
 C    -2.142323     3.755353     4.600135
 H    -1.145609     4.210955     4.726986
 H    -2.858056     4.567932     4.411947
 H    -2.403894     3.280291     5.557369
 C    -3.518386    -0.828518    -2.146663
 C    -4.595312     0.022881    -0.159390
 C    -5.928354    -0.749330    -2.021926
 C    -5.841716    -0.207051    -0.741504
 C    -4.763168    -1.063141    -2.722198
 H    -2.599862    -1.060927    -2.692624
 H    -4.823862    -1.488116    -3.726863
 H    -6.905906    -0.927978    -2.476318
 H    -6.750799     0.037877    -0.186756
 H    -4.537937     0.441403     0.847834
 C    -0.804447    -2.752865    -0.262196
 C    -2.354431    -2.348750     1.548576
 C    -1.506292    -4.576131     1.155519
 C    -2.297678    -3.696242     1.894838
 C    -0.766984    -4.104243     0.072991
 H    -0.223296    -2.357799    -1.101261
 H    -0.148553    -4.788464    -0.511609
 H    -1.474995    -5.636054     1.420767
 H    -2.888685    -4.065132     2.736688
 H    -3.005433    -1.673048     2.108496
 C     2.564232    -2.544303    -0.044724
 H     2.947739    -2.326047    -1.045421
 C     1.475858    -1.843411     1.980132
 H     1.004829    -1.070802     2.589784
 C     2.657606    -3.837970     0.457540
 H     3.123507    -4.617193    -0.152295
 C     1.562055    -3.141731     2.471881
 H     1.150221    -3.367813     3.459208
 C     2.153436    -4.163647     1.722126
 C     2.194205    -5.570372     2.238798
 H     2.938122    -6.178597     1.705121
 H     2.430422    -5.600868     3.312872
 H     1.212124    -6.056420     2.109759
 C     3.509934     1.564314    -1.637615
 C     4.568340    -0.028273    -0.166471
 C     5.918901     1.418280    -1.554271
 C     5.819078     0.404383    -0.602764
 C     4.760926     2.001078    -2.066444
 H     2.600135     2.019510    -2.038696
 H     4.829234     2.798743    -2.809860
 H     6.900582     1.754938    -1.896216
 H     6.722509    -0.054600    -0.193635
 H     4.503260    -0.819429     0.583638
 C     0.864015     2.469174     1.104237
 C     2.390867     1.201078     2.478846
 C     1.580213     3.349052     3.233282
 C     2.353276     2.206387     3.441986
 C     0.841332     3.482181     2.059526
 H     0.283375     2.559766     0.179863
 H     0.236397     4.374726     1.886673
 H     1.562899     4.141808     3.985590
 H     2.944194     2.103943     4.355504
 H     3.023053     0.324201     2.636958
