  96
scf done:    -2603.931028
 C    -1.432323     1.072180    -3.025310
 H    -1.657140     0.410203    -3.879072
 H    -2.403220     1.239495    -2.530283
 C    -0.889569     2.401575    -3.536858
 H     0.032144     2.271534    -4.126765
 H    -1.620193     2.924617    -4.182233
 H    -0.643407     3.093031    -2.712502
Ir    -0.021619     0.225122    -1.674062
 C    -1.991791     1.111384     1.157358
 C    -3.407623    -0.461963    -0.805637
 C    -1.548310    -1.774242     0.764815
 C     1.982298    -1.379159     0.930722
 C     3.402612     0.442473    -0.771433
 C     1.600288     1.526821     1.045057
 P     1.714809     0.100144    -0.110500
 P    -1.727035    -0.174196    -0.113702
 C     0.996972    -0.276642    -3.137147
 O     1.535160    -0.773150    -4.030967
 C    -1.441716     1.036454     2.441499
 H    -0.944354     0.122372     2.767019
 C    -2.609320     2.306635     0.767092
 H    -3.028369     2.399726    -0.238731
 C    -1.511780     2.120779     3.308551
 H    -1.059261     2.041518     4.300640
 C    -2.690090     3.382220     1.646159
 H    -3.181189     4.303696     1.321600
 C    -2.136579     3.313652     2.929050
 C    -2.172082     4.487181     3.861598
 H    -2.780144     5.308730     3.457828
 H    -2.583344     4.209498     4.844477
 H    -1.154212     4.873424     4.037074
 C    -3.494242    -1.167896    -2.008761
 H    -2.576747    -1.430292    -2.542311
 C    -4.576845    -0.121945    -0.119565
 H    -4.512741     0.417531     0.829021
 C    -4.742444    -1.519301    -2.514035
 H    -4.810922    -2.070952    -3.454727
 C    -5.837598    -0.460229    -0.622345
 C    -7.089288    -0.060448     0.104532
 H    -7.822976    -0.880447     0.123668
 H    -6.876119     0.231909     1.142483
 H    -7.575297     0.798077    -0.388086
 C    -5.902821    -1.166177    -1.829240
 H    -6.879060    -1.443868    -2.237048
 C    -2.235271    -2.069343     1.946295
 H    -2.835914    -1.305421     2.444800
 C    -0.828118    -2.779789     0.112890
 H    -0.301011    -2.520560    -0.812021
 C    -2.162822    -3.354173     2.479092
 H    -2.686291    -3.585945     3.410057
 C    -0.781642    -4.082488     0.616209
 C    -0.073884    -5.173224    -0.132273
 H    -0.798086    -5.810769    -0.666246
 H     0.620910    -4.760920    -0.875944
 H     0.497129    -5.824716     0.545933
 C    -1.446335    -4.349864     1.819097
 H    -1.413869    -5.360283     2.237558
 C     2.607348    -2.493336     0.356875
 H     3.023994    -2.423253    -0.651781
 C     1.439571    -1.513163     2.213365
 H     0.937811    -0.666086     2.681886
 C     2.704083    -3.692100     1.056337
 H     3.203166    -4.545875     0.589696
 C     1.523578    -2.719038     2.900001
 H     1.076601    -2.799897     3.894529
 C     2.156473    -3.831842     2.335973
 C     2.202330    -5.139110     3.068665
 H     2.553220    -5.010900     4.104152
 H     1.195775    -5.586961     3.124014
 H     2.864353    -5.861174     2.570429
 C     3.522054     1.260296    -1.897311
 H     2.620675     1.612650    -2.405126
 C     4.560807     0.014483    -0.111512
 H     4.476458    -0.611473     0.780526
 C     4.784646     1.626154    -2.359547
 H     4.873543     2.264658    -3.241741
 C     5.833092     0.365786    -0.569894
 C     7.068270    -0.124872     0.128907
 H     7.770878     0.699091     0.327610
 H     6.824533    -0.603657     1.087696
 H     7.604268    -0.865485    -0.487050
 C     5.928796     1.179253    -1.706382
 H     6.915608     1.466884    -2.080496
 C     2.280614     1.599237     2.264349
 H     2.867487     0.750681     2.622326
 C     0.894041     2.644196     0.586706
 H     0.374675     2.574612    -0.376777
 C     2.216040     2.767921     3.020029
 H     2.736635     2.822363     3.979504
 C     0.849292     3.833939     1.317198
 C     0.148402     5.044336     0.774592
 H     0.876335     5.764551     0.365557
 H    -0.545079     4.774710    -0.033397
 H    -0.423068     5.565853     1.556672
 C     1.509464     3.873200     2.551222
 H     1.481148     4.790279     3.147245
