  88
scf done:    -2747.582286
 C     1.438110    -1.899707    -2.927462
 H     0.968163    -2.034037    -3.916740
 H     2.155021    -1.071700    -3.065127
 C     2.192690    -3.165892    -2.535096
 H     1.526937    -4.042963    -2.491186
 H     2.998840    -3.404369    -3.253112
 H     2.661956    -3.075445    -1.542431
Ir    -0.133445    -1.353246    -1.555748
 C     2.900956    -0.678722    -0.088933
 O     1.972944     1.257229    -1.741085
 O     0.799820     0.960013     0.571067
 C    -2.357065     1.090184    -0.394356
 O    -3.171846    -1.517894    -0.348142
 O    -1.603485    -0.574297     1.448546
 P    -1.776164    -0.617005    -0.212362
 P     1.394418     0.109604    -0.699875
 C    -1.095636    -2.861617    -2.154574
 O    -1.635453    -3.825194    -2.460673
 C     2.807055    -1.493831     1.046744
 H     1.860690    -1.584937     1.583555
 C     4.111392    -0.595779    -0.780038
 H     4.179671     0.012664    -1.683582
 C     3.922308    -2.187901     1.494555
 H     3.834664    -2.812769     2.387493
 C     5.221871    -1.302312    -0.323430
 H     6.165291    -1.232679    -0.871458
 C     5.148791    -2.106418     0.818700
 C     6.336506    -2.886208     1.298789
 H     6.197154    -3.963692     1.112587
 H     7.258644    -2.576126     0.788081
 H     6.484688    -2.762570     2.382389
 C     2.212966     2.574059    -1.429991
 C     3.524454     3.045826    -1.432047
 H     4.340045     2.362214    -1.671952
 C     1.149446     3.427171    -1.136579
 H     0.129707     3.039655    -1.145012
 C     3.771813     4.379689    -1.115133
 H     4.799801     4.749722    -1.112776
 C     1.410520     4.754491    -0.809520
 H     0.577426     5.416208    -0.561400
 C     2.719291     5.235256    -0.793135
 H     2.919012     6.276741    -0.532377
 C     1.326060     1.788731     1.527130
 C     2.688996     1.958950     1.761632
 H     3.427431     1.421924     1.168627
 C     0.381508     2.484301     2.284124
 H    -0.674752     2.332651     2.056689
 C     3.097471     2.838202     2.763908
 H     4.166538     2.976201     2.941710
 C     0.804817     3.354633     3.282862
 H     0.062122     3.899888     3.870314
 C     2.166237     3.536362     3.528804
 H     2.499135     4.222972     4.309972
 C    -2.155075     1.698993    -1.635174
 H    -1.654297     1.134904    -2.429550
 C    -2.982360     1.811839     0.630750
 H    -3.144498     1.339339     1.601398
 C    -2.565838     3.013976    -1.847721
 H    -2.394242     3.481545    -2.820913
 C    -3.384499     3.122961     0.410320
 H    -3.869170     3.678768     1.218080
 C    -3.181020     3.748613    -0.829219
 C    -3.611275     5.169675    -1.043605
 H    -3.094461     5.849162    -0.347142
 H    -3.397322     5.507202    -2.066989
 H    -4.691732     5.288197    -0.865258
 C    -4.329886    -1.192035     0.310799
 C    -5.300148    -0.436402    -0.347244
 H    -5.108077    -0.105193    -1.369233
 C    -4.535539    -1.630397     1.619128
 H    -3.764063    -2.224932     2.111423
 C    -6.484116    -0.116290     0.312429
 H    -7.244702     0.475284    -0.202642
 C    -5.723024    -1.302841     2.270295
 H    -5.886672    -1.646447     3.294524
 C    -6.698152    -0.544551     1.622442
 H    -7.627405    -0.291123     2.137573
 C    -0.846637    -1.464456     2.148713
 C    -0.747434    -2.811012     1.786129
 H    -1.285577    -3.180983     0.912361
 C    -0.170111    -0.984793     3.272611
 H    -0.254541     0.072675     3.526483
 C     0.048881    -3.666773     2.545708
 H     0.131954    -4.715758     2.252419
 C     0.613207    -1.852937     4.028672
 H     1.145330    -1.469892     4.902593
 C     0.731819    -3.195797     3.666458
 H     1.350750    -3.873698     4.258325
