  90
scf done:    -3841.081898
 C    -2.291483     0.640739    -3.002292
 H    -2.244599     0.046768    -3.931291
 H    -3.166930     0.233702    -2.464243
 C    -2.568782     2.098646    -3.357757
 H    -1.758353     2.528442    -3.967418
 H    -3.507830     2.221676    -3.928864
 H    -2.654775     2.736358    -2.460851
Ir    -0.458648     0.488526    -1.890702
 C    -1.083129    -0.493031     1.542652
 C    -3.189106     1.121822     0.285814
 C    -2.792213    -1.674754    -0.450398
 C     2.455380    -0.691693    -0.152993
 C     2.753144     1.755934    -1.651607
 C     1.347904     1.723245     0.903964
 P     1.494752     0.775113    -0.676657
 P    -1.846392    -0.112911    -0.081039
 C     0.425506     0.398342    -3.515417
 O     0.949644     0.209913    -4.526674
 C    -0.123160    -1.515262     1.580483
 H     0.115273    -2.071483     0.675913
 C    -1.326510     0.227840     2.717487
 H    -2.041093     1.050897     2.730320
 C     0.566424    -1.820960     2.748475
 H     1.316410    -2.613160     2.757303
 C    -0.634856    -0.057003     3.892548
 H    -0.821874     0.516235     4.802124
 C     0.311448    -1.081120     3.901800
Cl     1.185099    -1.426849     5.353815
 H    -2.782738     1.820101     1.032965
 H    -3.279627     1.704732    -0.640354
 C    -4.526998     0.563827     0.672312
 C    -5.546862     0.493654    -0.285445
 H    -5.361883     0.878010    -1.292356
 C    -4.791995     0.063246     1.954075
 H    -4.017929     0.092398     2.722935
 C    -6.790922    -0.053690     0.015355
 H    -7.587944    -0.106686    -0.728352
 C    -6.030403    -0.487269     2.272783
 H    -6.242701    -0.876169     3.270248
 C    -7.017370    -0.540461     1.296175
 F    -8.202746    -1.067179     1.595273
 H    -3.415184    -1.901237     0.426554
 H    -3.470088    -1.411375    -1.276191
 C    -1.916830    -2.834096    -0.819543
 C    -1.276044    -2.876682    -2.065893
 H    -1.452944    -2.074544    -2.785379
 C    -1.672929    -3.867999     0.090897
 H    -2.170057    -3.855958     1.064154
 C    -0.388789    -3.901054    -2.381070
 H     0.121986    -3.936126    -3.345229
 C    -0.780093    -4.897021    -0.204945
 H    -0.569141    -5.696720     0.506948
 C    -0.138662    -4.888510    -1.435881
 F     0.751774    -5.844030    -1.715228
 C     3.357210    -0.692411     0.918139
 H     3.566574     0.224593     1.471684
 C     2.218781    -1.888531    -0.840119
 H     1.485110    -1.893992    -1.651791
 C     3.994239    -1.866503     1.308556
 H     4.687646    -1.873377     2.151014
 C     2.846595    -3.071253    -0.460634
 H     2.635650    -4.009801    -0.976133
 C     3.728037    -3.050939     0.620664
Cl     4.486252    -4.519717     1.131886
 H     2.941005     1.150856    -2.551227
 H     2.222514     2.661510    -1.983830
 C     4.022945     2.091371    -0.940616
 C     4.144528     3.278199    -0.204300
 H     3.316291     3.992555    -0.194551
 C     5.110065     1.206667    -0.954099
 H     5.039262     0.277966    -1.525181
 C     5.304563     3.572607     0.507874
 H     5.407495     4.496745     1.079335
 C     6.277729     1.486341    -0.250552
 H     7.128205     0.802368    -0.259017
 C     6.357637     2.666531     0.478742
 F     7.470424     2.939327     1.157630
 H     1.147641     0.976087     1.686799
 H     2.332924     2.159211     1.142919
 C     0.282871     2.789007     0.949880
 C    -0.317797     3.333301    -0.192571
 H    -0.048651     2.956381    -1.186931
 C    -0.133507     3.268382     2.200227
 H     0.321036     2.859356     3.106257
 C    -1.306920     4.311750    -0.096078
 H    -1.779995     4.728425    -0.987058
 C    -1.119600     4.243581     2.316305
 H    -1.446407     4.616340     3.288844
 C    -1.698478     4.754382     1.159028
 F    -2.645371     5.684844     1.261637
