  84
scf done:    -4657.290717
 C     0.825725    -2.797048    -2.783138
 H     1.045050    -2.568451    -3.839154
 H     1.813898    -2.892150    -2.302858
 C     0.079186    -4.122864    -2.673384
 H    -0.867537    -4.111760    -3.237164
 H     0.679162    -4.964332    -3.065863
 H    -0.174136    -4.369603    -1.629261
Ir    -0.334685    -1.210269    -1.931296
 O     2.294717    -1.843951     0.179489
 O     2.728911    -0.251019    -1.671256
 O     1.307440     0.508542     0.360797
 O    -1.274558     1.780910    -0.652749
 O    -3.210639     0.219674    -1.350539
 O    -1.891490    -0.105392     0.804977
 P    -1.655485     0.204794    -0.804541
 P     1.502728    -0.712805    -0.719728
 C    -1.458350    -1.285186    -3.450513
 O    -2.064109    -1.231732    -4.420113
 C     1.615018    -2.674571     1.049227
 C     1.566868    -4.035748     0.759103
 H     2.025169    -4.398322    -0.162279
 C     1.031775    -2.166707     2.209638
 H     1.065771    -1.095290     2.411797
 C     0.933872    -4.899846     1.649793
 H     0.890453    -5.967749     1.423584
 C     0.405521    -3.042832     3.093459
 H    -0.059832    -2.648856     3.999049
 C     0.353375    -4.407713     2.818486
 H    -0.160184    -5.084290     3.504467
 C     4.031906     0.055084    -1.332345
 C     4.904405    -0.923260    -0.862786
 H     4.558177    -1.950565    -0.756948
 C     4.458628     1.369489    -1.504779
 H     3.758092     2.109451    -1.893236
 C     6.199972    -0.564643    -0.500339
 H     6.893969    -1.313012    -0.114677
 C     5.749986     1.729470    -1.139513
 H     6.088155     2.762284    -1.233226
 C     6.611128     0.761353    -0.622639
Cl     8.206113     1.214131    -0.123780
 C     2.281358     1.341772     0.864591
 C     2.162072     2.702845     0.595953
 H     1.309194     3.053735     0.013199
 C     3.343346     0.850809     1.623095
 H     3.422457    -0.217376     1.826667
 C     3.139733     3.581361     1.051218
 H     3.069916     4.649385     0.839790
 C     4.328982     1.726874     2.065394
 H     5.187991     1.357274     2.626879
 C     4.228752     3.085389     1.767093
Cl     5.482074     4.165408     2.275673
 C    -1.641452     2.708070     0.302711
 C    -1.204283     2.586306     1.620861
 H    -0.594017     1.730063     1.904495
 C    -2.395938     3.806071    -0.102707
 H    -2.711419     3.878229    -1.143852
 C    -1.566005     3.563396     2.546059
 H    -1.227337     3.471003     3.580792
 C    -2.755123     4.772756     0.832530
 H    -3.367984     5.620876     0.518862
 C    -2.347879     4.651949     2.160799
 H    -2.633912     5.409321     2.893759
 C    -4.157205     1.155637    -1.011985
 C    -4.620637     2.002974    -2.016799
 H    -4.229924     1.883138    -3.028910
 C    -4.651494     1.260593     0.287805
 H    -4.302680     0.576675     1.061047
 C    -5.548530     2.994309    -1.715099
 H    -5.911911     3.672857    -2.488409
 C    -5.571460     2.257826     0.594100
 H    -5.949326     2.368983     1.611241
 C    -6.003678     3.129500    -0.403871
Cl    -7.116245     4.397837    -0.010528
 C    -2.254596    -1.301258     1.355775
 C    -2.156413    -2.522880     0.687026
 H    -1.763392    -2.556743    -0.337450
 C    -2.730977    -1.254381     2.666737
 H    -2.799218    -0.287219     3.168801
 C    -2.521162    -3.695720     1.337935
 H    -2.428486    -4.655781     0.828670
 C    -3.094609    -2.428660     3.318702
 H    -3.459501    -2.403955     4.346734
 C    -2.982631    -3.646547     2.651321
Cl    -3.381463    -5.118962     3.476598
