  56
scf done:    -1680.434039
 C     3.438848     0.938152    -0.879479
 H     4.073704     0.229720    -1.440258
 H     3.087347     1.654099    -1.646025
 C     4.302531     1.682971     0.135501
 H     4.773428     0.989886     0.850772
 H     5.117816     2.255716    -0.345339
 H     3.718438     2.396845     0.738955
Ir     1.819833    -0.191240    -0.030876
 C    -1.263283     1.704489    -0.146111
 C     1.081810     3.243751    -0.355217
 C     0.261000     1.683540    -2.603764
 C    -1.419272    -1.550208    -0.344328
 C     0.537027    -3.359027     0.577752
 C    -0.516934    -1.484366     2.406028
 P     0.102132    -1.573909     0.680508
 P     0.446895     1.578615    -0.788448
 C     3.101229    -1.334899     0.664911
 O     3.910127    -2.006248     1.141038
 C    -2.396043     1.764331    -0.958404
 H    -2.308935     1.716139    -2.044611
 C    -1.417065     1.745143     1.245930
 H    -0.525754     1.687038     1.879964
 C    -3.659176     1.865790    -0.376212
 H    -4.545473     1.904845    -1.014092
 C    -2.675051     1.843367     1.842749
 C    -2.825750     1.848574     3.336376
 H    -3.212769     0.880847     3.697261
 H    -1.864834     2.028534     3.838423
 H    -3.534645     2.622432     3.667440
 C    -3.798496     1.908381     1.006556
 H    -4.794805     1.992922     1.450225
 H     1.150305     3.328976     0.737713
 H     2.087894     3.372517    -0.775707
 H     0.406663     4.021444    -0.740909
 H    -0.261244     2.602196    -2.909556
 H     1.267933     1.669585    -3.043673
 H    -0.287408     0.804145    -2.967239
 C    -1.245347    -1.579607    -1.736073
 H    -0.230860    -1.603564    -2.147134
 C    -2.711498    -1.505243     0.177645
 H    -2.864542    -1.466888     1.258799
 C    -2.352614    -1.565593    -2.576297
 H    -2.215877    -1.592233    -3.660498
 C    -3.837262    -1.485350    -0.657177
 C    -5.214214    -1.433958    -0.063418
 H    -5.440009    -2.355135     0.497544
 H    -5.305995    -0.592940     0.641393
 H    -5.985230    -1.316399    -0.837746
 C    -3.640101    -1.515004    -2.039563
 H    -4.506768    -1.497166    -2.706169
 H     0.844648    -3.590357    -0.451525
 H     1.389626    -3.560467     1.243285
 H    -0.314618    -3.996509     0.858303
 H    -1.216899    -2.300372     2.642084
 H     0.357292    -1.555492     3.068899
 H    -1.004038    -0.516905     2.583231
