  84
scf done:    -2843.559914
 C    -1.175312     0.958406    -3.155123
 H    -0.746574     0.848158    -4.163762
 H    -2.170519     0.489445    -3.205944
 C    -1.317412     2.440208    -2.832161
 H    -0.339033     2.944075    -2.755061
 H    -1.891743     2.977533    -3.609175
 H    -1.851623     2.606875    -1.881585
Ir     0.088059     0.075872    -1.693212
 C    -1.528173     1.082080     1.424200
 C    -3.360281     0.565351    -0.706556
 C    -2.027412    -1.618942     0.420257
 C     1.673141    -1.705372     1.021535
 C     3.504289    -0.377476    -0.738590
 C     1.981581     1.223720     0.939924
 P     1.777341    -0.269625    -0.108064
 P    -1.678406     0.097139    -0.121998
 C     0.956305    -0.798883    -3.064774
 O     1.371635    -1.493322    -3.889481
 C    -1.662611     0.558438     2.712157
 H    -1.880540    -0.499663     2.858087
 C    -1.239814     2.446218     1.274532
 H    -1.108981     2.857664     0.269171
 C    -1.502067     1.389103     3.821206
 H    -1.594543     0.970345     4.826563
 C    -1.116023     3.298258     2.374304
 C    -0.866307     4.767175     2.197620
 H    -0.759411     5.030941     1.136588
 H    -1.699927     5.358274     2.609526
 H     0.047966     5.085418     2.720716
 C    -1.237357     2.743766     3.655729
 H    -1.123482     3.387420     4.532383
 C    -3.950089    -0.256000    -1.678843
 H    -3.417096    -1.141818    -2.034197
 C    -4.064433     1.683895    -0.252172
 H    -3.634767     2.328724     0.516518
 C    -5.209825     0.032029    -2.189956
 H    -5.679149    -0.600014    -2.945757
 C    -5.327242     1.986212    -0.759117
 H    -5.888874     2.854661    -0.410521
 C    -5.881902     1.157227    -1.724309
 F    -7.087897     1.439951    -2.210319
 C    -3.122429    -1.906344     1.248247
 H    -3.790046    -1.103821     1.571627
 C    -1.232987    -2.670267    -0.045958
 H    -0.411248    -2.436243    -0.728619
 C    -3.382438    -3.211680     1.652082
 H    -4.227006    -3.455430     2.299123
 C    -1.488237    -3.982153     0.341135
 H    -0.869786    -4.809837    -0.008339
 C    -2.550600    -4.231985     1.198941
 F    -2.792772    -5.481000     1.589164
 C     2.180239    -2.942917     0.600894
 H     2.757121    -3.014462    -0.324420
 C     0.912574    -1.648651     2.193272
 H     0.484220    -0.696756     2.511158
 C     1.946113    -4.083240     1.363364
 H     2.353075    -5.043815     1.037885
 C     0.655404    -2.790798     2.958725
 C    -0.225440    -2.710368     4.171079
 H    -0.150065    -1.729207     4.661765
 H    -1.280879    -2.857349     3.885109
 H     0.025261    -3.486305     4.908428
 C     1.191914    -4.009641     2.533262
 H     1.006093    -4.914316     3.118402
 C     3.814985     0.137217    -2.000587
 H     3.013576     0.527430    -2.631888
 C     4.545888    -0.844858     0.075455
 H     4.328380    -1.232932     1.073301
 C     5.129966     0.167372    -2.458471
 H     5.382921     0.561392    -3.444204
 C     5.862427    -0.827443    -0.370506
 H     6.682435    -1.195386     0.248778
 C     6.136755    -0.321668    -1.637333
 F     7.395175    -0.303866    -2.067592
 C     2.373958     1.225879     2.281234
 H     2.529846     0.284974     2.812059
 C     1.827081     2.448075     0.274870
 H     1.518536     2.445401    -0.776401
 C     2.569975     2.426569     2.960454
 H     2.854119     2.447983     4.013937
 C     2.053953     3.651985     0.930213
 H     1.942754     4.611911     0.423427
 C     2.407218     3.621395     2.273448
 F     2.576507     4.773708     2.925123
