  88
scf done:    -4585.469722
 C    -1.482450    -0.049030    -3.552390
 H    -1.079413     0.032900    -4.573984
 H    -1.906365    -1.062256    -3.470392
 C    -2.585430     0.987126    -3.363076
 H    -3.344191     0.926651    -4.164519
 H    -3.121200     0.847075    -2.409980
 H    -2.197782     2.019591    -3.368403
Ir     0.053747     0.231981    -2.089608
 C    -2.176350     0.303964     0.805912
 O    -2.560670    -1.526311    -1.161823
 O    -0.650525    -1.772401     0.511957
 C     3.335469     0.378545    -0.673526
 O     1.850690     2.497867    -0.415185
 O     1.166488     0.438743     0.984563
 P     1.593610     0.857219    -0.557127
 P    -1.333659    -0.640793    -0.484079
 C     1.304550     0.187383    -3.488348
 O     2.078409     0.012266    -4.317959
 C    -2.537764    -0.272852     2.028389
 H    -2.242935    -1.298291     2.255592
 C    -2.559165     1.615124     0.503663
 H    -2.255560     2.061699    -0.448947
 C    -3.289148     0.469555     2.933497
 H    -3.580219     0.027806     3.889392
 C    -3.335964     2.359736     1.398232
 C    -3.777164     3.754987     1.073740
 H    -3.173432     4.499053     1.616892
 H    -3.674446     3.977591     0.004054
 H    -4.827000     3.915772     1.361013
 C    -3.689733     1.765159     2.615943
 H    -4.296326     2.331541     3.328357
 C    -3.506936    -2.179477    -0.415295
 C    -3.259297    -3.470667     0.048535
 H    -2.308275    -3.952752    -0.184507
 C    -4.719366    -1.548411    -0.140702
 H    -4.888630    -0.535497    -0.509832
 C    -4.227194    -4.132457     0.798589
 H    -4.049585    -5.143580     1.167973
 C    -5.689006    -2.207067     0.607712
 H    -6.641063    -1.724696     0.833521
 C    -5.435559    -3.495185     1.078485
Cl    -6.637756    -4.314767     2.019324
 C     0.319535    -2.667306     0.176983
 C     0.533125    -3.106011    -1.131504
 H    -0.070696    -2.709108    -1.949663
 C     1.095028    -3.169349     1.223548
 H     0.914408    -2.806677     2.236551
 C     1.534820    -4.037737    -1.389968
 H     1.717420    -4.379212    -2.409817
 C     2.084670    -4.112984     0.967616
 H     2.693355    -4.514093     1.779354
 C     2.302861    -4.539555    -0.341933
Cl     3.542064    -5.708640    -0.669328
 C     4.254246     1.191516    -1.346234
 H     3.942947     2.160112    -1.741725
 C     3.731719    -0.858838    -0.159092
 H     3.003000    -1.492254     0.354041
 C     5.569001     0.757289    -1.483571
 H     6.296776     1.384869    -2.003308
 C     5.055621    -1.294870    -0.279589
 C     5.479917    -2.616035     0.289687
 H     5.063008    -2.766791     1.296561
 H     5.123825    -3.452195    -0.332651
 H     6.574210    -2.691128     0.356963
 C     5.964121    -0.468231    -0.950647
 H     7.003223    -0.792248    -1.054618
 C     0.822765     3.399380    -0.506310
 C     0.497609     4.148568     0.622985
 H     1.035122     3.964070     1.555056
 C     0.145921     3.601848    -1.709824
 H     0.409472     3.002019    -2.584017
 C    -0.492905     5.123281     0.546560
 H    -0.745383     5.728266     1.418737
 C    -0.857410     4.564166    -1.784364
 H    -1.393752     4.733983    -2.719256
 C    -1.164867     5.325915    -0.658087
Cl    -2.401133     6.538240    -0.756663
 C     1.739213     0.731782     2.187473
 C     1.086540     0.206931     3.305539
 H     0.174730    -0.371493     3.148799
 C     2.890782     1.505497     2.344405
 H     3.396718     1.929836     1.478213
 C     1.585648     0.441296     4.580644
 H     1.080195     0.037490     5.459277
 C     3.391097     1.737663     3.624092
 H     4.292316     2.337666     3.759467
 C     2.742544     1.205538     4.735832
Cl     3.371884     1.499695     6.323708
