  90
scf done:    -2373.895064
 C     1.628465    -2.635620    -0.364618
 H     1.387011    -3.595332    -0.849147
 H     2.404660    -2.178367    -1.000982
 C     2.192054    -2.898514     1.028110
 H     1.468631    -3.437170     1.662059
 H     3.116137    -3.507191     1.000222
 H     2.449656    -1.962908     1.553104
Ir    -0.100898    -1.410722    -0.108298
 C     3.043339     0.348712     0.064013
 C     1.422559     0.395709    -2.434506
 C     0.800695     2.148030    -0.286151
 C    -2.543996     1.252799    -0.113098
 C    -3.477914    -1.047875     1.248534
 C    -1.357827     0.388451     2.493844
 P    -1.872874    -0.198047     0.817584
 P     1.310886     0.398310    -0.587335
 C    -1.133389    -2.726276    -0.861931
 O    -1.742757    -3.434090    -1.554449
 C     3.236491     0.709817     1.413394
 O     2.137934     1.139868     2.073626
 C     2.275503     1.676055     3.358925
 H     1.286630     2.056171     3.645028
 H     2.586781     0.912884     4.092425
 H     2.999532     2.508773     3.376133
 C     4.163692    -0.143654    -0.635379
 O     3.976332    -0.505350    -1.919323
 C     5.005341    -1.135812    -2.626925
 H     4.592813    -1.387687    -3.612295
 H     5.332152    -2.064181    -2.128051
 H     5.877671    -0.473399    -2.765287
 C     5.417644    -0.249460    -0.017915
 H     6.275170    -0.630894    -0.569801
 C     4.485947     0.616825     2.034723
 H     4.615143     0.899502     3.078176
 C     5.566383     0.133986     1.307326
 H     6.544421     0.049105     1.786462
 H     2.213956     1.082031    -2.772930
 H     1.736798    -0.618529    -2.711650
 C     0.081091     0.716165    -3.082766
 H    -0.194888     1.768942    -2.906174
 H    -0.690876     0.104630    -2.585937
 C     0.085806     0.441744    -4.578079
 H     0.867831     1.022407    -5.094216
 H     0.274263    -0.623941    -4.784175
 H    -0.878987     0.707054    -5.039003
 H    -0.141355     2.258777    -0.844136
 H     0.537413     2.242307     0.774333
 C     1.793281     3.224110    -0.696717
 H     2.022404     3.129618    -1.771585
 H     2.750137     3.065548    -0.171873
 C     1.275835     4.626252    -0.412266
 H     0.319269     4.809504    -0.928396
 H     1.103162     4.771806     0.666655
 H     1.988446     5.398425    -0.740828
 C    -2.489901     2.610547     0.251357
 O    -1.991072     2.900207     1.472446
 C    -1.938724     4.230085     1.902587
 H    -1.521362     4.210964     2.917975
 H    -1.285627     4.845623     1.260976
 H    -2.941668     4.689826     1.939040
 C    -3.065831     0.940014    -1.387931
 O    -3.126057    -0.372609    -1.671958
 C    -3.475743    -0.813510    -2.956885
 H    -3.329944    -1.900387    -2.951898
 H    -2.822779    -0.368387    -3.725940
 H    -4.528124    -0.579132    -3.192858
 C    -3.486115     1.932840    -2.279015
 H    -3.878322     1.671429    -3.261010
 C    -2.912376     3.612874    -0.633407
 H    -2.861139     4.662755    -0.348817
 C    -3.399031     3.263515    -1.888252
 H    -3.724186     4.048935    -2.574527
 H    -3.829071    -0.570467     2.180267
 H    -4.201455    -0.775960     0.467253
 C    -3.444114    -2.562269     1.403987
 H    -2.572718    -2.871637     2.003471
 H    -3.292605    -3.021514     0.417210
 C    -4.723063    -3.100334     2.027415
 H    -4.876143    -2.700268     3.043280
 H    -5.606672    -2.822762     1.429752
 H    -4.702884    -4.198450     2.100439
 H    -0.532978     1.101048     2.358409
 H    -2.189149     0.934754     2.964999
 C    -0.902120    -0.784285     3.357039
 H    -0.024493    -1.255875     2.881511
 H    -1.681610    -1.562892     3.377485
 C    -0.585208    -0.377449     4.787661
 H     0.209415     0.382579     4.827810
 H    -1.470767     0.047947     5.287334
 H    -0.248431    -1.239396     5.383790
