  98
scf done:    -2603.000381
 C     2.880305    -0.954695    -1.866922
 H     2.676541    -1.436542    -2.839794
 H     3.274516     0.043781    -2.114771
 C     3.956346    -1.740972    -1.124229
 H     3.668162    -2.794293    -0.974991
 H     4.915054    -1.742335    -1.674161
 H     4.158903    -1.321533    -0.127340
Ir     1.014179    -0.804148    -0.793597
 O     2.867515     2.075704    -0.665130
 O     0.744214     2.425166    -1.842595
 O     0.667560     2.196059     0.621323
 O    -1.838052     0.642178     0.019210
 O    -1.978625    -1.881489     0.362515
 O    -0.802424    -0.498682     2.014670
 P    -0.892535    -0.658179     0.396063
 P     1.321363     1.487556    -0.660965
 C     0.896938    -2.657841    -1.035027
 O     0.840092    -3.796148    -1.178657
 C     3.844391     1.537726     0.135051
 C     5.143909     1.499785    -0.367472
 H     5.333743     1.891756    -1.368233
 C     3.573060     1.048300     1.411879
 H     2.561479     1.101367     1.817820
 C     6.162836     0.950437     0.400922
 H     7.177557     0.918455    -0.005382
 C     4.606771     0.491465     2.163672
 H     4.382048     0.100648     3.159745
 C     5.914129     0.422454     1.675565
 C     7.012077    -0.220011     2.472449
 H     7.212716    -1.243349     2.113550
 H     6.748414    -0.290963     3.537298
 H     7.954099     0.342845     2.391141
 C     1.019365     2.190398    -3.225181
 H     0.719563     3.122252    -3.728582
 H     2.105907     2.066677    -3.366572
 C     0.257195     1.004809    -3.779315
 H     0.493841     0.927820    -4.855123
 H     0.637892     0.081685    -3.301875
 C    -1.245877     1.080614    -3.560790
 H    -1.650798     1.987613    -4.045195
 H    -1.429388     1.195081    -2.480781
 C    -1.969621    -0.154524    -4.069806
 H    -1.838315    -0.285532    -5.156054
 H    -1.578019    -1.059135    -3.578068
 H    -3.051453    -0.104959    -3.869706
 C     0.632657     3.617928     0.795528
 H     1.187532     3.834364     1.723067
 H     1.153903     4.108634    -0.039433
 C    -0.802226     4.081764     0.893804
 H    -0.800344     5.185893     0.927651
 H    -1.320003     3.795435    -0.037344
 C    -1.544083     3.521554     2.098664
 H    -1.021628     3.836255     3.020138
 H    -1.476954     2.422587     2.071125
 C    -2.998480     3.957508     2.155695
 H    -3.087564     5.055329     2.205458
 H    -3.551283     3.616206     1.266257
 H    -3.510716     3.539488     3.035029
 C    -3.157780     0.819035     0.347526
 C    -3.665242     0.575451     1.623845
 H    -2.997663     0.224344     2.408828
 C    -3.999350     1.300663    -0.654203
 H    -3.581250     1.500358    -1.642391
 C    -5.015033     0.799101     1.876612
 H    -5.402632     0.605388     2.880812
 C    -5.345929     1.525273    -0.380627
 H    -5.994216     1.906705    -1.174331
 C    -5.883965     1.270371     0.885757
 C    -7.344474     1.470858     1.168654
 H    -7.800948     2.173185     0.456633
 H    -7.508799     1.860437     2.184264
 H    -7.896968     0.519218     1.091976
 C    -2.537809    -2.311989    -0.874579
 H    -2.856014    -1.432645    -1.460723
 H    -1.772412    -2.846206    -1.461333
 C    -3.722053    -3.207438    -0.593638
 H    -4.086747    -3.588977    -1.563608
 H    -3.374742    -4.088050    -0.025386
 C    -4.849959    -2.512636     0.155593
 H    -5.151846    -1.606806    -0.399283
 H    -4.461404    -2.146248     1.118353
 C    -6.056701    -3.405433     0.387984
 H    -6.490609    -3.755251    -0.563037
 H    -5.788232    -4.299790     0.973537
 H    -6.848577    -2.874552     0.938239
 C    -0.746454    -1.588108     2.931538
 H    -0.617251    -1.113109     3.916455
 H    -1.717852    -2.109701     2.925652
 C     0.374918    -2.575472     2.672719
 H     0.324421    -3.332396     3.475761
 H     0.168788    -3.122140     1.736117
 C     1.765773    -1.963100     2.611297
 H     1.949874    -1.373026     3.527234
 H     1.797305    -1.254087     1.763999
 C     2.860074    -2.998662     2.421318
 H     2.889686    -3.721534     3.253196
 H     2.701905    -3.567471     1.491356
 H     3.850115    -2.524412     2.346900
