 110
scf done:    -3283.940866
 C    -0.708999    -2.488260    -2.387036
 H    -0.354111    -3.530269    -2.437239
 H    -1.782181    -2.554255    -2.139218
 C    -0.538848    -1.816439    -3.745272
 H     0.518946    -1.792805    -4.055401
 H    -1.099686    -2.340028    -4.541877
 H    -0.893424    -0.772935    -3.731599
Ir     0.403981    -1.314067    -0.984368
 C    -2.987546    -0.232434    -1.486885
 O    -2.152455    -0.791005     1.011257
 O    -1.346691     1.323056     0.014914
 C     1.381994     0.473679     1.955882
 O     3.304292    -0.030215     0.246733
 O     1.581288     1.657783    -0.588212
 P     1.656118     0.198535     0.173429
 P    -1.508118    -0.257080    -0.415204
 C     1.577464    -2.762616    -0.783749
 O     2.159621    -3.716477    -0.503296
 C    -3.001817     0.699080    -2.543181
 O    -1.890889     1.444332    -2.667619
 C    -1.837509     2.472548    -3.616613
 H    -0.847904     2.934174    -3.512727
 H    -1.943653     2.084080    -4.643797
 H    -2.613029     3.233568    -3.426077
 C    -4.062706    -1.134814    -1.373009
 O    -3.953713    -2.090307    -0.437708
 C    -4.978317    -3.028001    -0.262234
 H    -4.645106    -3.693528     0.544045
 H    -5.147713    -3.623098    -1.176095
 H    -5.925698    -2.546521     0.035466
 C    -5.170837    -1.027726    -2.223996
 H    -6.013631    -1.710486    -2.127150
 C    -4.105952     0.812589    -3.393533
 H    -4.124463     1.552737    -4.191897
 C    -5.181424    -0.049042    -3.211310
 H    -6.048157     0.031906    -3.871682
 C    -1.813654    -1.877537     1.759621
 C    -1.767573    -1.688199     3.139106
 H    -1.932563    -0.680495     3.526944
 C    -1.575718    -3.137614     1.206361
 H    -1.606769    -3.272884     0.126626
 C    -1.502952    -2.757086     4.000780
 C    -1.493979    -2.545080     5.486801
 H    -1.047534    -1.573964     5.746510
 H    -2.518941    -2.551690     5.893793
 H    -0.930305    -3.334811     6.004385
 C    -1.296610    -4.199633     2.061836
 H    -1.099592    -5.187137     1.637341
 C    -1.265333    -4.019195     3.444849
 H    -1.051522    -4.867218     4.101149
 C    -2.319467     2.258879     0.184961
 C    -3.563836     1.963040     0.738245
 H    -3.773255     0.942619     1.062861
 C    -2.012296     3.561246    -0.217184
 H    -1.023391     3.755400    -0.633534
 C    -4.532188     2.965227     0.877208
 C    -5.880833     2.620980     1.440416
 H    -6.428469     1.948605     0.760102
 H    -5.789821     2.098087     2.405169
 H    -6.496403     3.518152     1.595091
 C    -2.966663     4.559760    -0.065147
 H    -2.732407     5.582196    -0.372733
 C    -4.221524     4.266290     0.472325
 H    -4.967837     5.057528     0.580238
 C     0.810561     1.613398     2.558544
 O     0.546942     2.661452     1.770913
 C     0.199701     3.895754     2.334843
 H     0.202278     4.619201     1.510857
 H    -0.808101     3.869680     2.782525
 H     0.935750     4.212752     3.093116
 C     1.650277    -0.653979     2.764015
 O     2.160065    -1.715827     2.125011
 C     2.277319    -2.949638     2.786989
 H     2.604042    -3.668667     2.026702
 H     1.307183    -3.273397     3.196438
 H     3.028800    -2.902307     3.593816
 C     1.393702    -0.637790     4.138513
 H     1.606628    -1.510093     4.754141
 C     0.546897     1.625402     3.936345
 H     0.108352     2.505287     4.404319
 C     0.847559     0.507329     4.704962
 H     0.644568     0.529010     5.778798
 C     3.983260    -0.709324    -0.723922
 C     3.706949    -0.521520    -2.076981
 H     2.937219     0.195879    -2.372035
 C     4.965175    -1.610556    -0.313939
 H     5.145008    -1.741914     0.754017
 C     4.395238    -1.257103    -3.048702
 C     4.051714    -1.079477    -4.498880
 H     4.112531    -0.021406    -4.797737
 H     4.724594    -1.657021    -5.147849
 H     3.019944    -1.412384    -4.697740
 C     5.663925    -2.327684    -1.278141
 H     6.433038    -3.039925    -0.969629
 C     5.378716    -2.159445    -2.633880
 H     5.925544    -2.739958    -3.381231
 C     2.249112     2.823104    -0.366955
 C     3.280043     2.970134     0.559599
 H     3.607222     2.110262     1.144987
 C     1.835070     3.911964    -1.138769
 H     1.037428     3.759728    -1.867829
 C     3.889793     4.216038     0.745845
 C     5.000644     4.354778     1.747002
 H     4.716586     3.926782     2.720761
 H     5.902147     3.817281     1.410808
 H     5.276174     5.407339     1.902049
 C     2.442925     5.148968    -0.958232
 H     2.118438     6.002928    -1.558216
 C     3.459988     5.306645    -0.016769
 H     3.930388     6.283166     0.122826
