 110
scf done:    -3283.936080
 C     1.102712    -1.149992    -3.324601
 H     1.125622    -0.424417    -4.155605
 H     2.139913    -1.197420    -2.956178
 C     0.690954    -2.518681    -3.857320
 H    -0.309694    -2.496753    -4.318586
 H     1.395070    -2.896213    -4.622550
 H     0.651486    -3.276665    -3.057594
Ir    -0.248754    -0.509234    -1.793917
 C     3.180524    -0.662756    -0.648991
 O     1.589494     1.625154    -0.587145
 O     1.283148    -0.220781     1.227819
 C    -1.631546     1.299665     0.992086
 O    -3.312159     0.068472    -0.763696
 O    -2.057865    -1.352097     0.925967
 P    -1.784601    -0.121996    -0.152692
 P     1.496407     0.004278    -0.408520
 C    -1.415803     0.004963    -3.151659
 O    -2.048394     0.526559    -3.962134
 C     3.237844    -2.068875    -0.735599
 O     2.075294    -2.699971    -0.506540
 C     2.007199    -4.100385    -0.602423
 H     2.653766    -4.580751     0.151043
 H     0.961786    -4.370200    -0.410708
 H     2.291494    -4.446336    -1.609618
 C     4.376523     0.064329    -0.788000
 O     4.306123     1.391786    -0.596784
 C     5.471567     2.171226    -0.630260
 H     5.154890     3.196358    -0.400064
 H     5.946501     2.151393    -1.625822
 H     6.202038     1.837035     0.125946
 C     5.579094    -0.593922    -1.073900
 H     6.504949    -0.033157    -1.190812
 C     4.434067    -2.732427    -1.021235
 H     4.469314    -3.817784    -1.097219
 C     5.588651    -1.978640    -1.194727
 H     6.529686    -2.487110    -1.417444
 C     1.981749     2.726622     0.105656
 C     1.868013     2.838700     1.487441
 H     1.457320     2.011183     2.062292
 C     2.427344     3.802753    -0.683119
 C     2.506211     3.645228    -2.169483
 H     2.854110     4.569310    -2.651135
 H     3.186575     2.822015    -2.436559
 H     1.528194     3.369472    -2.593633
 C     2.241664     4.027462     2.112305
 H     2.149876     4.110277     3.197855
 C     2.782707     4.984211    -0.029619
 H     3.130060     5.830653    -0.629121
 C     2.703643     5.102426     1.359465
 H     2.991248     6.036811     1.846497
 C     2.196447    -0.685113     2.140291
 C     3.393344    -0.010804     2.377552
 H     3.626189     0.889246     1.807184
 C     1.857167    -1.849553     2.848806
 C     0.579323    -2.565332     2.550485
 H    -0.267188    -1.867282     2.531280
 H     0.610344    -3.013834     1.547121
 H     0.386288    -3.363961     3.279507
 C     4.279691    -0.493366     3.338168
 H     5.218447     0.035171     3.519205
 C     2.761618    -2.302787     3.813731
 H     2.512689    -3.205702     4.378354
 C     3.963233    -1.640181     4.061239
 H     4.651554    -2.022236     4.818559
 C    -1.414244     1.304421     2.386272
 O    -1.399091     0.128319     3.037778
 C    -1.012387     0.094319     4.384915
 H    -0.998382    -0.963822     4.675283
 H    -0.001533     0.512629     4.526989
 H    -1.725955     0.631732     5.032596
 C    -1.636340     2.542522     0.319398
 O    -1.852413     2.472647    -1.003384
 C    -1.583832     3.579798    -1.821530
 H    -1.647353     3.217755    -2.855216
 H    -0.572764     3.976792    -1.633779
 H    -2.326827     4.381455    -1.671398
 C    -1.439901     3.749513     0.993845
 H    -1.439873     4.696261     0.456581
 C    -1.226613     2.517323     3.064650
 H    -1.068466     2.526212     4.141423
 C    -1.243718     3.718185     2.366497
 H    -1.089604     4.653984     2.908154
 C    -4.386692     0.624847    -0.124736
 C    -4.613266     0.469154     1.242886
 H    -3.916001    -0.115515     1.842567
 C    -5.270537     1.357932    -0.933650
 C    -4.999020     1.496726    -2.398592
 H    -3.998081     1.916175    -2.573103
 H    -5.004336     0.516212    -2.899442
 H    -5.748359     2.139365    -2.880673
 C    -5.731426     1.061686     1.827148
 H    -5.903759     0.941792     2.899434
 C    -6.385624     1.933148    -0.319985
 H    -7.083024     2.507253    -0.936506
 C    -6.620810     1.795671     1.047823
 H    -7.499530     2.260154     1.500929
 C    -2.142416    -2.686295     0.634042
 C    -1.659001    -3.253090    -0.544663
 H    -1.205823    -2.603439    -1.309926
 C    -2.730181    -3.485485     1.631069
 C    -3.287909    -2.858710     2.871890
 H    -2.611638    -2.088070     3.265245
 H    -4.244102    -2.353898     2.656542
 H    -3.472608    -3.614315     3.647850
 C    -1.748938    -4.629954    -0.741815
 H    -1.377943    -5.058886    -1.676183
 C    -2.790364    -4.863679     1.412479
 H    -3.238000    -5.494558     2.185551
 C    -2.307178    -5.443556     0.240109
 H    -2.375926    -6.523775     0.093604
