  80
scf done:    -1994.683621
 C     3.313750     1.128338     0.277700
 H     3.850672     1.492651    -0.616585
 H     2.979156     2.036058     0.808324
 C     4.289917     0.376122     1.177627
 H     4.759306    -0.473106     0.655416
 H     5.107231     1.027664     1.540517
 H     3.790538    -0.039885     2.068444
Ir     1.638048    -0.085422    -0.244015
 C    -1.026722     1.600430     1.366599
 C     0.839986     3.422889     0.200831
 C    -0.904583     1.914515    -1.536664
 C    -1.525748    -1.469867    -1.314148
 C     0.491020    -3.381812    -0.656334
 C    -0.792583    -1.893718     1.466117
 P    -0.071330    -1.677009    -0.215615
 P     0.145631     1.730565    -0.038871
 C     2.806354    -1.213741    -1.123254
 O     3.471330    -1.848119    -1.827249
 C    -2.414227     1.509831     1.227737
 H    -2.882903     1.600512     0.247523
 C    -0.461803     1.449528     2.642313
 H     0.627917     1.477127     2.748534
 C    -3.211623     1.268112     2.348005
 H    -4.296070     1.192245     2.232920
 C    -1.245897     1.211058     3.771665
 C    -0.623489     1.016371     5.123186
 H    -0.784479    -0.012071     5.485030
 H     0.459864     1.197001     5.097687
 H    -1.065609     1.694854     5.869194
 C    -2.636033     1.119550     3.605099
 H    -3.270411     0.923137     4.474006
 H     0.005151     4.121803     0.374091
 H     1.424347     3.393793     1.134984
 C     1.719871     3.876492    -0.958607
 H     1.097367     4.027213    -1.856368
 H     2.425281     3.070653    -1.213158
 C     2.482710     5.153784    -0.645625
 H     1.800164     5.981198    -0.392450
 H     3.160108     5.007073     0.210646
 H     3.094917     5.475004    -1.501860
 H    -0.215627     1.785143    -2.386853
 H    -1.552204     1.025453    -1.561127
 C    -1.727197     3.189971    -1.690260
 H    -1.057900     4.050305    -1.850439
 H    -2.274037     3.411810    -0.759239
 C    -2.710118     3.087232    -2.847365
 H    -2.186910     2.889895    -3.796382
 H    -3.418884     2.257717    -2.692557
 H    -3.290630     4.014340    -2.969300
 C    -1.309556    -1.487654    -2.698486
 H    -0.312135    -1.701957    -3.091732
 C    -2.799880    -1.141284    -0.836392
 H    -2.986396    -1.105619     0.238254
 C    -2.350330    -1.189573    -3.572784
 H    -2.174599    -1.206550    -4.651196
 C    -3.849379    -0.814841    -1.702625
 C    -5.190503    -0.408602    -1.162799
 H    -5.262029    -0.596170    -0.082035
 H    -5.374015     0.666297    -1.328313
 H    -6.008248    -0.953858    -1.658258
 C    -3.609128    -0.847946    -3.080790
 H    -4.415609    -0.598830    -3.776154
 H    -0.382297    -4.051879    -0.714089
 H     0.904861    -3.307880    -1.675515
 C     1.550584    -3.929234     0.294273
 H     1.079656    -4.196349     1.255446
 H     2.276863    -3.132816     0.528882
 C     2.282015    -5.133532    -0.276688
 H     1.583883    -5.945443    -0.537185
 H     2.831524    -4.855797    -1.189876
 H     3.011830    -5.536745     0.441654
 H     0.075209    -1.895921     2.146714
 H    -1.326782    -0.958748     1.696075
 C    -1.682040    -3.104402     1.723145
 H    -1.088158    -4.028581     1.636068
 H    -2.460535    -3.177624     0.946163
 C    -2.333595    -3.043924     3.097050
 H    -1.574715    -2.997605     3.894741
 H    -2.964723    -2.145892     3.196052
 H    -2.965404    -3.925077     3.286598
