 116
scf done:    -3362.336046
 C     1.545022    -2.169818    -2.247788
 H     1.523799    -1.757960    -3.272715
 H     2.551138    -1.919986    -1.872901
 C     1.433902    -3.690390    -2.346140
 H     0.516156    -4.007946    -2.864632
 H     2.286018    -4.133557    -2.895126
 H     1.408813    -4.179133    -1.356826
Ir     0.001445    -1.133565    -1.140297
 C     2.627513    -1.169444     1.215495
 C     3.215054     0.423626    -1.166655
 C     1.723938     1.548997     1.057143
 C    -1.356199     1.811768     0.005192
 C    -3.355615    -0.135090    -1.018106
 C    -2.434870    -0.414011     1.579363
 P    -1.752527     0.018843    -0.085144
 P     1.854085     0.025365     0.020941
 C    -1.134764    -2.098582    -2.185275
 O    -1.810895    -2.704403    -2.906715
 C     3.277700    -0.786742     2.396619
 H     3.385641     0.271334     2.639691
 C     2.522621    -2.525778     0.918956
 H     1.982628    -2.821535     0.018567
 C     3.799504    -1.749663     3.249070
 H     4.295633    -1.442588     4.173965
 C     3.075244    -3.511472     1.752612
 C     2.972454    -4.960767     1.372352
 H     1.922077    -5.285455     1.293192
 H     3.431413    -5.146275     0.388789
 H     3.469201    -5.608391     2.108743
 C     3.707618    -3.107205     2.927141
 H     4.134903    -3.857737     3.598508
 C     4.579721     0.416933    -0.828230
 O     4.880717     0.328408     0.478404
 C     6.184308     0.021820     0.879652
 H     6.137374    -0.171269     1.959463
 H     6.563766    -0.882524     0.374486
 H     6.880628     0.858324     0.693052
 C     2.878484     0.724771    -2.503188
 O     1.580200     0.918646    -2.757562
 C     1.105436     0.906063    -4.074088
 H     0.011201     0.854213    -4.004667
 H     1.461044     0.019259    -4.623699
 H     1.400013     1.819412    -4.620834
 C     3.862362     0.848230    -3.491084
 H     3.584851     1.046244    -4.525664
 C     5.572721     0.537511    -1.811067
 H     6.627109     0.500565    -1.540170
 C     5.200763     0.734554    -3.134508
 H     5.972743     0.827302    -3.902368
 C     2.220436     2.812035     0.677425
 O     2.615010     2.953924    -0.594075
 C     3.218773     4.135860    -1.025561
 H     3.506215     3.966910    -2.071675
 H     2.522177     4.991081    -0.974163
 H     4.124494     4.372176    -0.440479
 C     1.157983     1.435779     2.341541
 O     0.579072     0.256435     2.614997
 C     0.307821    -0.082774     3.946200
 H     0.076442    -1.152500     3.954051
 H    -0.563943     0.469591     4.336029
 H     1.184016     0.099001     4.590811
 C     1.220313     2.481096     3.269184
 H     0.797776     2.364793     4.266217
 C     2.288258     3.865181     1.601603
 H     2.699416     4.829343     1.306556
 C     1.808087     3.681811     2.890534
 H     1.863548     4.504446     3.607430
 C    -0.777666     2.361911    -1.143117
 H    -0.593013     1.714110    -2.000302
 C    -1.514882     2.615586     1.133026
 H    -1.911359     2.186796     2.054106
 C    -0.432870     3.706870    -1.179662
 H     0.015329     4.126652    -2.083940
 C    -1.161064     3.968707     1.118538
 C    -1.372324     4.826053     2.332402
 H    -2.323185     5.382206     2.267489
 H    -1.405067     4.218199     3.247827
 H    -0.566708     5.566442     2.447087
 C    -0.631150     4.509606    -0.057665
 H    -0.348494     5.566492    -0.082668
 C    -3.918706    -1.426757    -1.052274
 O    -3.267219    -2.363946    -0.340034
 C    -3.622449    -3.710801    -0.462255
 H    -2.892394    -4.275323     0.131554
 H    -4.634134    -3.904583    -0.064799
 H    -3.562966    -4.045312    -1.510891
 C    -4.044249     0.890109    -1.695271
 O    -3.543314     2.132969    -1.597823
 C    -4.114569     3.188920    -2.306031
 H    -3.485558     4.065860    -2.102867
 H    -5.147045     3.401546    -1.973406
 H    -4.127987     2.999978    -3.394257
 C    -5.212065     0.618602    -2.421607
 H    -5.730524     1.417395    -2.950487
 C    -5.084159    -1.705817    -1.775705
 H    -5.490553    -2.715608    -1.805598
 C    -5.715468    -0.676350    -2.459509
 H    -6.623448    -0.884560    -3.030589
 C    -1.975628    -1.552232     2.268687
 O    -0.920341    -2.188145     1.748498
 C    -0.576389    -3.466254     2.191218
 H     0.147615    -3.851633     1.464449
 H    -0.098356    -3.448984     3.187400
 H    -1.452769    -4.136604     2.225550
 C    -3.581833     0.237013     2.076725
 O    -4.039567     1.264502     1.341992
 C    -5.228902     1.909773     1.683292
 H    -5.402996     2.659821     0.901325
 H    -5.155831     2.421997     2.659205
 H    -6.081983     1.209876     1.707240
 C    -4.208549    -0.182209     3.258121
 H    -5.084054     0.340062     3.641943
 C    -2.608090    -1.989193     3.442753
 H    -2.238845    -2.864239     3.976817
 C    -3.708698    -1.293368     3.927057
 H    -4.195128    -1.630252     4.845974
