  96
scf done:    -2603.936679
 C     1.250128    -2.212565    -3.021436
 H     0.905851    -2.007938    -4.050279
 H     2.235536    -1.712855    -2.961444
 C     1.433297    -3.718903    -2.855243
 H     0.489549    -4.259335    -3.030170
 H     2.179032    -4.132638    -3.559640
 H     1.760376    -3.995706    -1.839600
Ir    -0.164502    -1.292027    -1.697247
 C     1.373759    -0.094099     1.305637
 C     3.009779    -1.865317    -0.233751
 C     2.611744     0.811652    -1.358693
 C    -1.384035     1.782027    -0.789158
 C    -3.445263    -0.153146    -1.210141
 C    -2.028624    -0.105344     1.281198
 P    -1.711368    -0.003894    -0.533901
 P     1.708901    -0.549131    -0.441208
 C    -1.468882    -2.202309    -2.644166
 O    -2.258705    -2.837800    -3.194910
 C     1.307290     1.209079     1.811035
 H     1.531181     2.066789     1.182267
 C     1.036208    -1.162188     2.151497
 H     1.036181    -2.183959     1.763447
 C     0.932689     1.416612     3.138470
 H     0.891381     2.437548     3.526084
 C     0.647821    -0.967276     3.479122
 C     0.226986    -2.130355     4.327055
 H     0.856438    -3.013066     4.142750
 H     0.276156    -1.887875     5.397941
 H    -0.811391    -2.417863     4.092309
 C     0.608476     0.345515     3.965895
 H     0.310011     0.526051     5.002070
 H     3.129614    -2.307819    -1.231209
 H     2.554730    -2.642197     0.396704
 C     4.328479    -1.408084     0.307733
 C     4.516719    -1.151918     1.673378
 H     3.690695    -1.307047     2.369884
 C     5.408175    -1.203400    -0.562069
 H     5.285615    -1.419706    -1.627284
 C     5.740784    -0.686987     2.147394
 H     5.865321    -0.489264     3.214719
 C     6.633804    -0.737117    -0.089406
 H     7.460527    -0.582022    -0.786549
 C     6.802650    -0.471635     1.268357
 H     7.761270    -0.104570     1.642163
 H     1.939135     1.052992    -2.193180
 H     3.490137     0.308511    -1.791402
 C     3.021784     2.070129    -0.654530
 C     4.131050     2.116677     0.198302
 H     4.741285     1.225561     0.345511
 C     2.261849     3.232665    -0.830301
 H     1.391718     3.208846    -1.489308
 C     4.451199     3.288740     0.878743
 H     5.316073     3.301419     1.546421
 C     2.581008     4.405122    -0.148770
 H     1.966987     5.297120    -0.296425
 C     3.674581     4.435965     0.715782
 H     3.926149     5.352568     1.254785
 C    -1.190389     2.199245    -2.115927
 H    -1.171907     1.451697    -2.914809
 C    -1.361397     2.733306     0.231340
 H    -1.501634     2.426768     1.269437
 C    -1.032711     3.550580    -2.403705
 H    -0.905410     3.875694    -3.439168
 C    -1.163892     4.094126    -0.040865
 C    -1.086000     5.082355     1.085137
 H    -1.866004     4.895441     1.838385
 H    -0.111614     5.007445     1.596879
 H    -1.194877     6.115814     0.727043
 C    -1.023332     4.492451    -1.372488
 H    -0.891358     5.552546    -1.606256
 H    -3.696382    -1.222338    -1.134596
 H    -3.359445     0.080561    -2.282191
 C    -4.470492     0.695113    -0.526548
 C    -4.598271     2.060069    -0.820325
 H    -3.969332     2.505582    -1.594416
 C    -5.296566     0.147549     0.464028
 H    -5.212874    -0.916326     0.700898
 C    -5.513850     2.853914    -0.133536
 H    -5.597273     3.915640    -0.378468
 C    -6.212654     0.940694     1.151869
 H    -6.847938     0.491599     1.919459
 C    -6.321669     2.299290     0.858617
 H    -7.040177     2.922866     1.396023
 H    -2.809083     0.627145     1.538405
 H    -1.103205     0.221699     1.777459
 C    -2.422640    -1.465550     1.789987
 C    -3.328789    -1.558736     2.854964
 H    -3.767823    -0.643518     3.261790
 C    -1.880204    -2.649484     1.272833
 H    -1.184086    -2.593592     0.424955
 C    -3.674564    -2.794337     3.398555
 H    -4.381664    -2.842078     4.230517
 C    -2.229290    -3.886412     1.813079
 H    -1.797897    -4.797183     1.390134
 C    -3.123504    -3.965827     2.879539
 H    -3.395744    -4.936470     3.300966
