 100
scf done:    -2904.575972
 C     1.300450    -1.801975    -2.671933
 H     0.968162    -1.872193    -3.720225
 H     2.338972    -1.444923    -2.711753
 C     1.247234    -3.184392    -2.035764
 H     0.218754    -3.579090    -1.995631
 H     1.852266    -3.922087    -2.595499
 H     1.639200    -3.178623    -1.004763
Ir     0.017829    -0.533557    -1.553387
 C     1.259454    -0.722611     1.800504
 C     3.311981    -1.045124    -0.172150
 C     2.164095     1.538529     0.175324
 C    -1.704724     2.013764     0.213201
 C    -3.435907     0.096865    -1.097488
 C    -2.217815    -0.684000     1.248805
 P    -1.792129     0.256327    -0.278150
 P     1.674813    -0.230676     0.078897
 C    -0.592292     0.181181    -3.134702
 O    -0.813271     0.798245    -4.091306
 C     1.315496     0.131951     2.904081
 H     1.668947     1.156495     2.788266
 C     0.791369    -2.030703     1.980290
 H     0.694828    -2.685075     1.107556
 C     0.910214    -0.324589     4.156946
 H     0.935035     0.354018     5.013538
 C     0.437061    -2.519536     3.239796
 C     0.040249    -3.953960     3.428104
 H    -0.241372    -4.420209     2.473706
 H     0.875865    -4.538022     3.849017
 H    -0.810066    -4.049102     4.118642
 C     0.486718    -1.638854     4.327001
 H     0.181978    -1.989104     5.317043
 C     3.779048    -2.087363     0.626668
 H     3.184277    -2.409342     1.483028
 C     4.112810    -0.616365    -1.251919
 O     3.638420     0.418816    -1.965569
 C     4.290706     0.832640    -3.129795
 H     5.304343     1.216045    -2.917116
 H     3.683076     1.643513    -3.550269
 H     4.359974     0.014607    -3.867934
 C     4.995472    -2.717852     0.363387
 H     5.335671    -3.534585     1.003488
 C     5.331097    -1.247109    -1.522573
 H     5.943405    -0.921233    -2.363742
 C     5.765605    -2.297088    -0.715232
 H     6.718204    -2.784392    -0.937276
 C     1.517576     2.462657    -0.643507
 H     0.697909     2.094545    -1.267013
 C     3.267918     1.968331     0.942624
 O     3.886818     1.033985     1.687606
 C     5.071454     1.343259     2.360952
 H     5.847740     1.713509     1.669127
 H     5.418780     0.408524     2.818808
 H     4.911381     2.094500     3.154830
 C     1.914012     3.797642    -0.688510
 H     1.379508     4.502163    -1.327927
 C     3.673731     3.306985     0.898460
 H     4.524251     3.645550     1.490670
 C     2.991084     4.213751     0.086618
 H     3.317759     5.256628     0.062398
 C    -2.244876     2.999943    -0.621334
 H    -2.834163     2.713865    -1.496223
 C    -0.927993     2.400536     1.306600
 H    -0.456510     1.637389     1.928179
 C    -2.026378     4.343060    -0.332916
 H    -2.454215     5.111361    -0.982097
 C    -0.697916     3.747075     1.605622
 C     0.206493     4.115306     2.744468
 H     0.032492     3.475196     3.622588
 H     1.259971     3.984775     2.444335
 H     0.073786     5.163274     3.049163
 C    -1.266066     4.716691     0.776038
 H    -1.096292     5.775755     0.988948
 C    -3.556194    -0.667013    -2.257721
 H    -2.645024    -1.096298    -2.681268
 C    -4.609544     0.624829    -0.512209
 O    -4.457337     1.313645     0.630940
 C    -5.569457     1.871746     1.267224
 H    -6.076975     2.614221     0.627106
 H    -5.191000     2.377415     2.164529
 H    -6.297807     1.099501     1.570318
 C    -4.793418    -0.888838    -2.861663
 H    -4.858103    -1.485624    -3.773549
 C    -5.851320     0.415516    -1.121518
 H    -6.758351     0.831970    -0.683026
 C    -5.935649    -0.338087    -2.291886
 H    -6.913297    -0.494725    -2.754819
 C    -2.533690    -0.115304     2.480480
 H    -2.454426     0.964835     2.603528
 C    -2.367459    -2.078686     1.093865
 O    -2.034133    -2.575271    -0.113516
 C    -2.317896    -3.909818    -0.423789
 H    -1.731217    -4.608881     0.197534
 H    -2.035144    -4.049427    -1.474322
 H    -3.392037    -4.132297    -0.303651
 C    -2.983869    -0.897504     3.544857
 H    -3.217807    -0.429146     4.503070
 C    -2.854984    -2.860681     2.142528
 H    -2.990843    -3.934564     2.014650
 C    -3.154338    -2.265061     3.367420
 H    -3.526203    -2.885427     4.186835
