  52
scf done:    -1752.250290
 C    -3.621050     1.191364     0.396574
 H    -4.494571     0.668429     0.817728
 H    -3.362917     1.947551     1.159903
 C    -4.033874     1.880325    -0.901372
 H    -4.383489     1.151843    -1.649821
 H    -4.854059     2.606523    -0.747361
 H    -3.201917     2.431141    -1.371370
Ir    -1.995505    -0.163339     0.033059
 O     0.848555     1.549129    -0.518572
 C    -0.988286     3.320809     0.404472
 C     0.150339     1.392343     2.160562
 O     1.075555    -1.380959     0.442104
 C    -0.536511    -3.312396    -0.629924
 C     0.447344    -1.197723    -2.236855
 P    -0.263394    -1.508130    -0.585604
 P    -0.507012     1.564763     0.474474
 C    -3.201562    -1.565900     0.235132
 O    -3.915274    -2.442108     0.457289
 C     1.978612     2.286319    -0.296580
 C     2.977882     1.797176     0.548502
 H     2.829138     0.837484     1.044914
 C     2.154392     3.497910    -0.968016
 H     1.368557     3.849972    -1.639022
 C     4.148732     2.531277     0.724976
 H     4.930311     2.144101     1.383005
 C     3.329396     4.224091    -0.784270
 H     3.465862     5.170596    -1.312807
 C     4.327886     3.746283     0.064021
 H     5.247944     4.317562     0.204855
 H    -1.845576     3.481099     1.072930
 H    -0.154781     3.967723     0.714319
 H    -1.296486     3.576356    -0.618369
 H     0.591838     0.390623     2.250687
 H     0.889581     2.168786     2.406295
 H    -0.706282     1.460803     2.847053
 C     2.238991    -2.076694     0.282731
 C     3.253648    -1.579092    -0.540277
 H     3.093427    -0.641838    -1.074958
 C     2.436271    -3.260834     0.997872
 H     1.637763    -3.621385     1.649182
 C     4.456602    -2.273782    -0.649911
 H     5.247876    -1.878482    -1.291488
 C     3.642252    -3.948186     0.881057
 H     3.792170    -4.872534     1.444172
 C     4.654996    -3.460235     0.055360
 H     5.599730    -4.000928    -0.033364
 H     0.372284    -3.865049    -0.910406
 H    -0.891002    -3.652874     0.353074
 H    -1.327989    -3.512958    -1.367341
 H     0.776677    -0.150717    -2.276546
 H     1.281415    -1.873200    -2.476981
 H    -0.362588    -1.339821    -2.967773
