  70
scf done:    -2360.391088
 C    -3.229303     1.813330    -0.624001
 H    -4.273331     1.662743    -0.305015
 H    -2.918124     2.781811    -0.202251
 C    -3.162378     1.879933    -2.146918
 H    -3.488690     0.935056    -2.614417
 H    -3.811749     2.677849    -2.554863
 H    -2.137955     2.086666    -2.494570
Ir    -1.952276     0.217077     0.012146
 C     1.455837     1.338187    -0.673977
 O    -0.512621     3.162763    -0.661217
 O     0.197054     2.150635     1.574044
 C     1.136395    -1.673468     0.590716
 O    -1.250897    -2.632739     1.478747
 O    -0.734923    -2.673339    -1.006002
 P    -0.680649    -1.652258     0.287373
 P    -0.186994     1.716049     0.042384
 C    -3.471442    -0.634154     0.664783
 O    -4.398128    -1.076883     1.187449
 C     2.727666     1.637114    -0.144233
 O     2.775382     2.237406     1.055116
 C     4.013913     2.483391     1.654527
 H     3.799978     2.938795     2.629910
 H     4.582050     1.550030     1.810798
 H     4.629151     3.183720     1.062522
 C     1.389880     0.732535    -1.946849
 O     0.149914     0.508190    -2.411270
 C    -0.058146    -0.339883    -3.510390
 H    -1.146004    -0.418168    -3.625101
 H     0.363438    -1.337982    -3.313396
 H     0.368726     0.082948    -4.435741
 C     2.543957     0.413821    -2.668732
 H     2.474809    -0.054589    -3.649348
 C     3.886908     1.323773    -0.868996
 H     4.871247     1.547071    -0.461461
 C     3.780786     0.720506    -2.115792
 H     4.691323     0.485568    -2.672898
 C     0.444358     4.197170    -0.673506
 H     0.904082     4.333674     0.318971
 H     1.243132     3.990840    -1.406072
 H    -0.074944     5.121095    -0.963934
 C    -0.886062     2.418275     2.447577
 H    -1.468434     3.289133     2.104731
 H    -1.559676     1.546856     2.508135
 H    -0.455586     2.643326     3.432900
 C     2.158732    -2.086863    -0.291032
 O     1.807582    -2.546450    -1.504358
 C     2.784058    -3.084354    -2.346922
 H     2.257376    -3.444050    -3.240564
 H     3.528824    -2.328878    -2.651942
 H     3.307607    -3.934587    -1.876157
 C     1.522435    -1.143170     1.841587
 O     0.512441    -0.772002     2.643964
 C     0.790149    -0.128265     3.854955
 H    -0.180533     0.107591     4.306692
 H     1.350564     0.805899     3.685252
 H     1.354538    -0.781724     4.542847
 C     2.865659    -1.039497     2.218331
 H     3.144052    -0.627681     3.186822
 C     3.504896    -2.003622     0.094901
 H     4.292961    -2.321519    -0.584784
 C     3.841787    -1.482745     1.335994
 H     4.895204    -1.416580     1.619631
 C    -0.615520    -3.850923     1.782757
 H    -0.321902    -4.395039     0.869633
 H     0.282966    -3.687374     2.401757
 H    -1.329983    -4.463462     2.351201
 C    -1.974490    -2.872675    -1.647092
 H    -2.670881    -3.445161    -1.010858
 H    -2.452199    -1.911194    -1.902964
 H    -1.779022    -3.445630    -2.564961
