 108
scf done:    -2461.282930
 C    -1.184209     1.541675    -2.920406
 H    -0.838133     1.493733    -3.965083
 H    -2.234742     1.218093    -2.958619
 C    -1.109345     2.990635    -2.449010
 H    -0.075040     3.370703    -2.457432
 H    -1.709265     3.669475    -3.084213
 H    -1.481975     3.116985    -1.416512
Ir     0.050533     0.386956    -1.618006
 C    -1.610455     0.789525     1.538924
 C    -3.427908     0.569091    -0.675509
 C    -1.847438    -1.825676     0.271662
 C     1.650609    -1.665270     0.942013
 C     3.397496    -0.417289    -0.948191
 C     1.934177     1.227815     1.137210
 P     1.753136    -0.152407    -0.094561
 P    -1.741047    -0.010725    -0.113182
 C     1.061831    -0.052336    -3.090675
 O     1.608685    -0.480569    -4.017915
 C    -1.358482     0.097912     2.727809
 H    -1.264522    -0.987664     2.729017
 C    -1.711498     2.187541     1.588242
 H    -1.885938     2.744851     0.662863
 C    -1.203759     0.796242     3.925879
 H    -0.992928     0.246067     4.846657
 C    -1.591184     2.898976     2.783532
 C    -1.763305     4.389909     2.811119
 H    -1.562040     4.836690     1.827169
 H    -2.795347     4.658583     3.091751
 H    -1.093086     4.860636     3.545383
 C    -1.322055     2.181635     3.957400
 H    -1.204956     2.718246     4.902850
 H    -3.187717     1.560660    -1.101936
 C    -4.509302     0.784256     0.386322
 H    -4.128184     1.392052     1.219386
 H    -4.808905    -0.182994     0.820399
 C    -5.730418     1.459646    -0.234046
 H    -6.512506     1.596804     0.530599
 H    -5.445531     2.472698    -0.571949
 C    -6.277115     0.671117    -1.419045
 H    -7.125499     1.204564    -1.877761
 H    -6.677241    -0.293208    -1.055773
 C    -5.192848     0.399342    -2.455837
 H    -4.871963     1.351230    -2.916080
 H    -5.589215    -0.222814    -3.274570
 C    -3.980726    -0.278875    -1.825757
 H    -4.287498    -1.264279    -1.436793
 H    -3.201796    -0.467188    -2.579492
 H    -0.948565    -1.983649     0.895806
 C    -1.658450    -2.692692    -0.978774
 H    -0.748902    -2.362507    -1.506692
 H    -2.493717    -2.526323    -1.677335
 C    -1.592666    -4.173625    -0.620617
 H    -1.512577    -4.774468    -1.541193
 H    -0.673142    -4.359469    -0.042620
 C    -2.790965    -4.622050     0.207736
 H    -2.687207    -5.682307     0.490995
 H    -3.709874    -4.552007    -0.402809
 C    -2.953842    -3.751527     1.448059
 H    -2.077406    -3.887680     2.108426
 H    -3.837393    -4.063323     2.028827
 C    -3.072585    -2.278246     1.069152
 H    -3.977116    -2.147301     0.452928
 H    -3.219150    -1.658396     1.966430
 C     1.755074    -2.907719     0.298812
 H     1.925702    -2.951253    -0.780189
 C     1.402540    -1.645736     2.317870
 H     1.320345    -0.693267     2.843174
 C     1.633611    -4.086379     1.026217
 H     1.736728    -5.048955     0.519431
 C     1.235160    -2.824366     3.056284
 C     0.895433    -2.759891     4.517364
 H     1.330599    -1.868983     4.993308
 H    -0.197306    -2.707686     4.663598
 H     1.252747    -3.648212     5.057683
 C     1.364989    -4.048362     2.394590
 H     1.256002    -4.980996     2.954686
 H     3.108904    -1.133107    -1.740788
 C     4.539360    -1.061878    -0.159914
 H     4.195154    -1.966642     0.362198
 H     4.898871    -0.370179     0.617996
 C     5.694638    -1.405374    -1.098529
 H     6.522284    -1.855974    -0.526631
 H     5.356796    -2.175907    -1.815135
 C     6.183133    -0.183009    -1.868565
 H     6.982064    -0.466619    -2.572908
 H     6.636495     0.531725    -1.157348
 C     5.041146     0.507522    -2.606366
 H     4.659858    -0.150389    -3.407286
 H     5.401363     1.423541    -3.102115
 C     3.891652     0.843275    -1.662194
 H     4.243323     1.571619    -0.910756
 H     3.066977     1.325940    -2.209025
 H     1.064669     1.067528     1.801844
 C     1.719519     2.595957     0.479282
 H     0.782983     2.581525    -0.103299
 H     2.523405     2.790285    -0.249115
 C     1.697406     3.709176     1.520809
 H     1.583634     4.685820     1.022640
 H     0.809496     3.574818     2.159599
 C     2.941374     3.697694     2.401247
 H     2.874204     4.483794     3.171153
 H     3.828989     3.938530     1.788139
 C     3.140755     2.331810     3.047888
 H     2.301483     2.127645     3.738005
 H     4.058898     2.321339     3.657794
 C     3.200955     1.231112     1.992902
 H     4.073320     1.414363     1.343888
 H     3.365413     0.249720     2.463461
