 100
scf done:    -2380.762154
 C    -1.310736    -2.749795    -2.298725
 H    -0.882145    -3.759298    -2.409988
 H    -2.141082    -2.885377    -1.582317
 C    -1.860657    -2.290348    -3.646813
 H    -1.064515    -2.221557    -4.404663
 H    -2.629285    -2.979993    -4.043805
 H    -2.322901    -1.290361    -3.594466
Ir     0.163530    -1.368217    -1.554332
 O    -1.168973     1.330189    -0.159737
 C    -3.236533    -0.248769    -0.974505
 C    -1.665288    -0.921348     1.375754
 O     1.592204     0.578098     0.828473
 C     3.429686    -0.128603    -1.018915
 C     1.420103     1.925825    -1.487364
 P     1.638428     0.219234    -0.832400
 P    -1.520555    -0.297919    -0.334075
 C     1.462168    -2.452847    -2.332223
 O     2.271478    -3.149236    -2.763547
 C    -1.652322     2.238285     0.734129
 C    -1.184217     2.260826     2.050199
 H    -0.451469     1.518553     2.368261
 C    -2.545232     3.214703     0.287292
 H    -2.876984     3.189082    -0.752431
 C    -1.637679     3.248935     2.921726
 H    -1.270657     3.264524     3.950746
 C    -2.987081     4.201132     1.165709
 H    -3.684427     4.964259     0.811923
 C    -2.540459     4.219133     2.487062
 H    -2.888070     4.993552     3.173996
 H    -3.421775    -1.226207    -1.447881
 H    -3.185668     0.477460    -1.801832
 C    -4.343398     0.093064     0.015309
 H    -4.426308    -0.720338     0.754750
 H    -4.087868     1.000734     0.588139
 C    -5.716075     0.299501    -0.633073
 H    -5.923847    -0.585076    -1.264242
 C    -6.796038     0.378283     0.439919
 H    -6.815220    -0.530779     1.061057
 H    -7.795617     0.504347    -0.003806
 H    -6.618032     1.236208     1.109731
 C    -5.751336     1.535969    -1.525044
 H    -6.739896     1.658033    -1.993462
 H    -5.010087     1.488256    -2.337124
 H    -5.547177     2.445133    -0.934894
 H    -2.387970    -0.299362     1.928853
 H    -0.676878    -0.770575     1.833689
 C    -2.055668    -2.394603     1.422078
 H    -2.948767    -2.569151     0.797510
 H    -1.249926    -2.993850     0.963491
 C    -2.350357    -2.907321     2.834376
 H    -3.163261    -2.279689     3.248025
 C    -2.853014    -4.345037     2.775744
 H    -3.747180    -4.435892     2.139292
 H    -3.112127    -4.720610     3.777665
 H    -2.079787    -5.011599     2.359234
 C    -1.146016    -2.788693     3.760532
 H    -1.390736    -3.146324     4.772578
 H    -0.784172    -1.753848     3.854480
 H    -0.304521    -3.392409     3.385454
 C     1.943489    -0.289739     1.809109
 C     2.279841     0.270395     3.047685
 H     2.256025     1.357313     3.151769
 C     1.965505    -1.679319     1.643011
 H     1.649666    -2.108738     0.685673
 C     2.647782    -0.555010     4.106265
 H     2.911274    -0.108470     5.068297
 C     2.349099    -2.491116     2.709199
 H     2.369503    -3.574817     2.569021
 C     2.693394    -1.940197     3.941935
 H     2.991389    -2.584774     4.771339
 H     3.599800    -0.256133    -2.101777
 H     3.577736    -1.127102    -0.578398
 C     4.383736     0.889796    -0.409569
 H     4.407898     1.790775    -1.045273
 H     4.000139     1.219572     0.571092
 C     5.812267     0.371907    -0.214092
 H     6.149706    -0.063608    -1.173640
 C     6.747069     1.524283     0.134812
 H     6.747983     2.296728    -0.650204
 H     7.783209     1.176348     0.267195
 H     6.435501     2.006256     1.076721
 C     5.875654    -0.716820     0.852911
 H     6.904235    -1.088385     0.979092
 H     5.241827    -1.582666     0.609850
 H     5.534770    -0.327482     1.826927
 H     0.413059     1.924735    -1.928488
 H     2.132613     2.004729    -2.325974
 C     1.544259     3.089144    -0.510593
 H     1.023604     2.824425     0.419024
 H     2.599475     3.249760    -0.229556
 C     0.953190     4.396385    -1.041593
 H    -0.078831     4.172009    -1.371612
 C     0.860240     5.425511     0.078663
 H     0.241647     5.051051     0.909449
 H     0.413807     6.367472    -0.276662
 H     1.859844     5.662129     0.480780
 C     1.723986     4.941121    -2.238221
 H     1.273730     5.873010    -2.614298
 H     1.746901     4.225747    -3.074664
 H     2.768100     5.165063    -1.960601
