  94
scf done:    -4663.885146
 C    -1.257768     0.272633    -3.218036
 H    -1.160466    -0.419347    -4.069593
 H    -2.336314     0.336315    -3.008697
 C    -0.737024     1.650108    -3.612874
 H     0.330278     1.624903    -3.889267
 H    -1.283376     2.064536    -4.481309
 H    -0.848562     2.383898    -2.795806
Ir    -0.065519    -0.340760    -1.556482
 C    -2.409555     2.148141    -0.405838
 C    -3.347523    -0.623563    -0.580711
 C    -1.829294     0.060640     1.562531
 C     1.656119    -1.308458     1.584741
 C     3.294993    -1.041336    -0.719019
 C     2.340273     1.296397     0.261658
 P     1.700920    -0.404742    -0.014133
 P    -1.850658     0.402382    -0.246338
 C     0.618240    -1.737973    -2.546665
 O     0.889274    -2.737929    -3.063356
 C    -1.644519     3.138444     0.244135
 O    -0.587150     2.682598     0.935486
 C     0.126759     3.543429     1.780610
 H     0.959479     2.950421     2.172938
 H     0.538795     4.407687     1.236892
 H    -0.508677     3.901102     2.609843
 C    -3.455365     2.573820    -1.252642
 O    -4.092916     1.625919    -1.952848
 C    -5.163351     1.955936    -2.792073
 H    -5.516655     1.009778    -3.220382
 H    -4.847653     2.627116    -3.609008
 H    -5.989645     2.427782    -2.233235
 C    -3.786222     3.932420    -1.350725
 H    -4.606135     4.255799    -1.990232
 C    -1.976024     4.494908     0.157352
 H    -1.393575     5.246847     0.687458
 C    -3.051850     4.872187    -0.638040
 H    -3.315301     5.929461    -0.717530
 C    -3.282788    -1.702568    -1.460207
 H    -2.345877    -1.891262    -1.991490
 C    -4.534271    -0.386801     0.123248
 H    -4.592410     0.442579     0.833178
 C    -4.390954    -2.525940    -1.658454
 H    -4.343116    -3.370883    -2.347242
 C    -5.648172    -1.192466    -0.069630
 H    -6.577280    -1.008005     0.472117
 C    -5.568795    -2.260551    -0.966931
Cl    -6.955939    -3.271351    -1.210648
 C    -1.496453    -1.253805     1.908503
 H    -1.222135    -1.961111     1.120675
 C    -2.209253     0.949946     2.569243
 H    -2.527183     1.963389     2.319142
 C    -1.504084    -1.669116     3.234299
 H    -1.228773    -2.689565     3.501028
 C    -2.198538     0.555138     3.905177
 H    -2.477391     1.252259     4.697345
 C    -1.826947    -0.748038     4.227624
Cl    -1.727114    -1.219656     5.895656
 C     1.589813    -0.778795     2.886266
 O     1.473262     0.555785     3.012722
 C     1.451446     1.117227     4.298498
 H     1.371632     2.202420     4.162668
 H     0.583766     0.765732     4.880295
 H     2.377935     0.896093     4.855417
 C     1.600653    -2.714182     1.440976
 O     1.546295    -3.145417     0.172271
 C     1.589370    -4.514490    -0.128702
 H     1.539587    -4.582417    -1.221920
 H     0.730365    -5.051285     0.308233
 H     2.527124    -4.973427     0.227536
 C     1.607599    -3.567918     2.547289
 H     1.590275    -4.649430     2.419167
 C     1.620281    -1.630427     4.001145
 H     1.580685    -1.225237     5.010305
 C     1.638996    -3.006725     3.820155
 H     1.649660    -3.659287     4.696215
 C     4.267075    -1.693073     0.045660
 H     4.077826    -1.917558     1.097925
 C     3.577265    -0.754464    -2.057857
 H     2.829180    -0.236952    -2.664649
 C     5.484069    -2.071116    -0.515047
 H     6.238094    -2.587770     0.081209
 C     4.790982    -1.120616    -2.631041
 H     5.004337    -0.898529    -3.677732
 C     5.739182    -1.783483    -1.854473
Cl     7.251109    -2.253679    -2.558819
 C     3.370763     1.610107     1.154773
 H     3.770532     0.843372     1.821175
 C     1.890999     2.279958    -0.623208
 H     1.102995     2.028738    -1.341485
 C     3.903748     2.893390     1.202267
 H     4.699057     3.145920     1.905475
 C     2.430383     3.563854    -0.604861
 H     2.075746     4.329701    -1.296584
 C     3.423615     3.865984     0.322507
Cl     4.069644     5.472917     0.392173
