 100
scf done:    -2904.726346
 C     0.690327    -3.411471    -0.156953
 H     1.153079    -3.892655    -1.034304
 H     1.473231    -3.381557     0.615504
 C    -0.483974    -4.254250     0.331597
 H    -1.289140    -4.321135    -0.418117
 H    -0.172695    -5.287257     0.573342
 H    -0.932484    -3.837216     1.249162
Ir    -0.060679    -1.458867    -0.608713
 C     0.093855    -0.296783     2.738146
 O     2.289337    -1.435149     1.892917
 O     1.697170     0.895155     1.034344
 C    -0.798985     1.943687    -1.687831
 O    -2.711630     0.152217    -1.763395
 O    -1.875075     0.946448     0.583463
 P    -1.323890     0.412397    -0.879883
 P     1.022732    -0.606644     1.222065
 C    -0.336495    -2.087339    -2.364374
 O    -0.348770    -2.421581    -3.463005
 C     0.598213     0.510035     3.763252
 H     1.582166     0.971331     3.659996
 C    -1.164079    -0.884559     2.856439
 H    -1.536812    -1.498689     2.030186
 C    -0.178631     0.723935     4.896399
 H     0.197923     1.354064     5.705743
 C    -1.957445    -0.672395     3.989072
 C    -3.333179    -1.264255     4.073531
 H    -4.026687    -0.724903     3.406964
 H    -3.335223    -2.319281     3.761721
 H    -3.738597    -1.205988     5.093159
 C    -1.442732     0.139141     5.004598
 H    -2.045994     0.322687     5.898058
 C     3.555999    -1.484223     1.358404
 C     3.780093    -1.737989     0.008795
 H     2.926498    -1.918574    -0.649725
 C     4.617624    -1.252395     2.231479
 H     4.405169    -1.067195     3.285693
 C     5.081261    -1.715821    -0.504468
 C     5.305097    -1.925877    -1.972362
 H     4.738700    -2.792976    -2.343929
 H     4.961176    -1.044920    -2.538569
 H     6.368218    -2.082617    -2.202416
 C     5.914459    -1.251337     1.727315
 H     6.755823    -1.071780     2.401282
 C     6.145470    -1.469583     0.369644
 H     7.167009    -1.453261    -0.018771
 C     2.672632     1.226754     0.115164
 C     3.833898     1.806556     0.614343
 H     3.932947     1.929727     1.694773
 C     2.503553     1.023451    -1.253345
 H     1.598138     0.536218    -1.620241
 C     4.869733     2.180985    -0.247524
 C     6.153062     2.722636     0.309405
 H     5.970877     3.463107     1.102750
 H     6.748389     1.907576     0.753957
 H     6.764799     3.197376    -0.470492
 C     3.520498     1.420954    -2.115347
 H     3.391482     1.278879    -3.190976
 C     4.692735     1.992352    -1.622469
 H     5.487534     2.287765    -2.312278
 C    -0.977573     2.138617    -3.061345
 H    -1.575843     1.432239    -3.639831
 C    -0.035826     2.847554    -0.944110
 H     0.114783     2.677098     0.124938
 C    -0.389799     3.242999    -3.671368
 H    -0.530760     3.410925    -4.741876
 C     0.577051     3.945527    -1.553000
 C     1.468874     4.845713    -0.751929
 H     1.019083     5.092528     0.221270
 H     2.428534     4.339965    -0.550365
 H     1.684954     5.783549    -1.282543
 C     0.383415     4.132318    -2.925664
 H     0.854122     4.986183    -3.420660
 C    -3.350066    -1.061851    -1.699605
 C    -3.607820    -1.673960    -0.474280
 H    -3.323759    -1.161247     0.447063
 C    -3.727360    -1.668296    -2.895536
 H    -3.504988    -1.171035    -3.840878
 C    -4.227772    -2.927470    -0.425000
 C    -4.454049    -3.600217     0.897031
 H    -3.498750    -3.954727     1.318012
 H    -4.898226    -2.908229     1.628482
 H    -5.118916    -4.469524     0.799984
 C    -4.357975    -2.907462    -2.848829
 H    -4.654253    -3.396403    -3.779772
 C    -4.600352    -3.535955    -1.627509
 H    -5.086714    -4.514364    -1.606862
 C    -2.584273     2.080760     0.883973
 C    -3.490754     2.658542    -0.000275
 H    -3.650200     2.206776    -0.980503
 C    -2.365892     2.624391     2.151283
 H    -1.651069     2.142045     2.820168
 C    -4.191139     3.813929     0.368855
 C    -5.150471     4.442883    -0.599528
 H    -4.624893     4.792709    -1.502475
 H    -5.913398     3.720933    -0.930378
 H    -5.667449     5.304112    -0.154109
 C    -3.069573     3.765021     2.519690
 H    -2.908747     4.199696     3.509261
 C    -3.972059     4.359482     1.636867
 H    -4.515084     5.259423     1.936404
