  68
scf done:    -1837.556897
 C    -3.107427    -1.532676    -0.745575
 H    -4.115932    -1.108828    -0.877715
 H    -2.851264    -1.949591    -1.733248
 C    -3.182994    -2.648301     0.293123
 H    -3.524810    -2.268627     1.269091
 H    -3.880723    -3.454020    -0.004626
 H    -2.204686    -3.128827     0.472755
Ir    -1.704094    -0.058751    -0.085939
 C     1.448427    -1.775401    -0.107662
 C    -0.373600    -2.842094    -2.009747
 C     0.802730    -0.250034    -2.497297
 C     1.043563     2.189805    -0.044658
 C    -1.043238     2.874043     1.771594
 C     0.712059     0.676560     2.411610
 P    -0.238391     1.395598     1.000420
 P     0.039690    -1.253250    -1.157210
 C    -3.142932     1.082034     0.086411
 O    -4.021215     1.833012     0.048901
 C     2.784000    -1.463944    -0.374198
 H     3.055032    -0.892281    -1.263114
 C     1.135443    -2.504562     1.048150
 H     0.084735    -2.717875     1.272642
 C     3.780067    -1.869741     0.515459
 H     4.824261    -1.619153     0.310667
 C     2.122315    -2.929548     1.939725
 C     1.770136    -3.721732     3.164677
 H     2.311176    -3.354636     4.049814
 H     0.692989    -3.675464     3.377139
 H     2.038746    -4.783385     3.037772
 C     3.454296    -2.592238     1.658995
 H     4.244168    -2.899947     2.349948
 H    -1.134820    -2.589796    -2.764579
 C     0.791282    -3.594296    -2.629502
 H     1.553377    -3.851736    -1.878481
 H     1.286217    -3.011959    -3.421572
 H    -0.893271    -3.461806    -1.262716
 H     0.442110    -4.532574    -3.087605
 H     1.552936    -0.862528    -3.022848
 C    -0.235137     0.306371    -3.460023
 H    -0.994935     0.879543    -2.906954
 H    -0.757462    -0.490837    -4.011432
 H     1.340617     0.572198    -2.004463
 H     0.241318     0.968547    -4.198626
 C     0.613211     3.031255    -1.080740
 H    -0.451408     3.250636    -1.197348
 C     2.403782     1.878928     0.049182
 H     2.757912     1.205174     0.831609
 C     1.530881     3.544874    -1.990860
 H     1.187377     4.193310    -2.800597
 C     3.338002     2.380401    -0.866238
 C     4.793293     2.037359    -0.730575
 H     5.316645     2.779466    -0.104777
 H     4.930041     1.056086    -0.252768
 H     5.298220     2.020700    -1.707373
 C     2.883025     3.216829    -1.890158
 H     3.594521     3.611824    -2.620567
 H    -1.585532     3.382560     0.958935
 C    -1.999320     2.519555     2.899950
 H    -1.470245     2.098346     3.768270
 H    -2.745808     1.779496     2.577186
 H    -0.256367     3.565946     2.111989
 H    -2.540906     3.413663     3.244116
 H     1.389879    -0.073051     1.976374
 C     1.458998     1.639583     3.322674
 H     0.772843     2.293738     3.879821
 H     2.149031     2.288832     2.763657
 H    -0.029558     0.089729     2.977574
 H     2.053857     1.083466     4.064061
