 108
scf done:    -2761.070173
 C    -1.141924     2.428068    -2.427362
 H    -1.588764     2.117289    -3.387873
 H    -2.002805     2.672632    -1.784668
 C    -0.320204     3.695204    -2.651460
 H     0.507126     3.528920    -3.360403
 H    -0.935437     4.519644    -3.057322
 H     0.134298     4.065571    -1.717483
Ir     0.069144     0.876760    -1.591513
 C    -0.708285     0.725096     1.877724
 C    -3.012928     1.479154     0.299211
 C    -2.012165    -1.257766     0.152771
 C     1.414321    -2.140945    -0.167527
 C     3.261199    -0.590701    -1.685496
 C     2.517042     0.427535     0.904964
 P     1.770876    -0.372617    -0.576931
 P    -1.432836     0.498432     0.200888
 C     0.774661     0.670761    -3.287081
 O     1.106150     0.424153    -4.366439
 C    -0.488050    -0.367577     2.729415
 H    -0.817839    -1.366066     2.440288
 C    -0.236568     2.002539     2.255572
 C    -0.382530     3.202433     1.368703
 H    -1.367245     3.680540     1.494574
 H    -0.276406     2.926343     0.306015
 H     0.389895     3.950246     1.594424
 C     0.167175    -0.212402     3.948386
 H     0.325836    -1.079819     4.593201
 C     0.416301     2.135900     3.486568
 H     0.796295     3.120454     3.770647
 C     0.618927     1.048660     4.330880
 H     1.139108     1.184493     5.282049
 H    -3.326118     1.510231     1.352219
 H    -2.752824     2.507825     0.005342
 C    -4.133160     0.950554    -0.554772
 C    -3.926306     0.543238    -1.879322
 H    -2.928898     0.612522    -2.320390
 C    -5.415681     0.843003    -0.012097
 H    -5.577796     1.144299     1.027260
 C    -4.986050     0.032306    -2.622351
 H    -4.816735    -0.286379    -3.653942
 C    -6.490047     0.329943    -0.744779
 C    -7.842796     0.194629    -0.109125
 H    -7.816759    -0.554220     0.699253
 H    -8.174500     1.144844     0.337571
 H    -8.602523    -0.121071    -0.837961
 C    -6.257358    -0.077306    -2.061586
 H    -7.081675    -0.486376    -2.652411
 H    -2.054813    -1.489822    -0.919648
 H    -1.175380    -1.862824     0.534565
 C    -3.319577    -1.628655     0.798097
 C    -4.231170    -2.398916     0.068766
 H    -3.985000    -2.696865    -0.953010
 C    -3.672563    -1.235169     2.094749
 H    -2.985069    -0.622974     2.681728
 C    -5.455830    -2.759617     0.621785
 H    -6.160163    -3.354485     0.035285
 C    -4.901848    -1.580166     2.663027
 C    -5.271005    -1.101837     4.037991
 H    -4.388846    -0.754968     4.594687
 H    -5.981236    -0.259503     3.985324
 H    -5.756499    -1.895829     4.625291
 C    -5.791999    -2.354587     1.910322
 H    -6.757336    -2.639399     2.338717
 C     0.639788    -2.727339    -1.183880
 H     0.294330    -2.083408    -2.000294
 C     1.844012    -2.941872     0.915024
 C     2.724023    -2.468692     2.036197
 H     2.270985    -1.643124     2.601762
 H     3.700593    -2.130063     1.659038
 H     2.912071    -3.291183     2.739311
 C     0.284141    -4.070467    -1.160911
 H    -0.315186    -4.492588    -1.970621
 C     1.443226    -4.287218     0.933048
 H     1.758985    -4.908678     1.775524
 C     0.681513    -4.855805    -0.082461
 H     0.398994    -5.909841    -0.027713
 H     2.883470    -1.084255    -2.592945
 H     3.573451     0.425625    -1.970044
 C     4.373387    -1.363317    -1.054372
 C     5.385584    -0.712076    -0.334075
 H     5.405246     0.380870    -0.298959
 C     4.376372    -2.761222    -1.099605
 H     3.591349    -3.274841    -1.661889
 C     6.354953    -1.452496     0.336120
 H     7.141407    -0.938641     0.894371
 C     5.335928    -3.520314    -0.421560
 C     5.275740    -5.019382    -0.465563
 H     4.302612    -5.381584    -0.096777
 H     5.387931    -5.392784    -1.495872
 H     6.066052    -5.475363     0.146966
 C     6.325470    -2.846689     0.301744
 H     7.084696    -3.421151     0.839427
 H     1.802305     0.290985     1.728278
 H     3.423146    -0.127728     1.181261
 C     2.864487     1.893317     0.801086
 C     2.634080     2.688085    -0.322873
 H     2.140575     2.261097    -1.204882
 C     3.446526     2.491746     1.928738
 H     3.626237     1.877054     2.816300
 C     2.963857     4.044639    -0.306445
 H     2.763450     4.653524    -1.191354
 C     3.780112     3.845674     1.965094
 C     4.408441     4.455819     3.185016
 H     4.318533     3.794983     4.058998
 H     5.482132     4.648091     3.023911
 H     3.943617     5.421357     3.436781
 C     3.527053     4.622248     0.824578
 H     3.775638     5.687353     0.829501
