 104
scf done:    -2308.943709
 C     1.051143    -3.340573     0.677688
 H     0.845727    -4.291255     0.159721
 H     2.144227    -3.226965     0.628500
 C     0.619163    -3.476494     2.134675
 H    -0.468041    -3.629187     2.228470
 H     1.111717    -4.329477     2.638886
 H     0.862319    -2.578782     2.730214
Ir    -0.025428    -1.710376    -0.195128
 C     1.163292     1.052074     1.707622
 C     3.235380    -0.852540     1.121627
 C     2.224842     0.837711    -0.988856
 C    -1.119186     1.371164    -1.719138
 C    -3.131009    -0.637994    -1.453433
 C    -2.213486     0.758270     0.898359
 P    -1.585639    -0.036521    -0.638380
 P     1.661461    -0.176223     0.435573
 C    -0.895508    -2.947812    -1.250207
 O    -1.345317    -3.684917    -2.020385
 C     1.042430     2.422627     1.454775
 H     1.331551     2.838811     0.489717
 C     0.750236     0.557781     2.953113
 H     0.803585    -0.518036     3.145224
 C     0.510229     3.267588     2.429386
 H     0.406542     4.335398     2.219675
 C     0.224582     1.391848     3.942018
 C    -0.202993     0.840870     5.270870
 H     0.548164     1.059450     6.047709
 H    -1.152623     1.286723     5.602861
 H    -0.331167    -0.249909     5.231473
 C     0.102906     2.759671     3.658601
 H    -0.324341     3.429541     4.409897
 H     2.950160    -1.523365     1.948754
 H     3.809180    -0.022488     1.561604
 C     4.045167    -1.615608     0.076022
 H     3.358872    -2.176292    -0.580478
 H     4.573589    -0.902002    -0.579478
 C     5.067729    -2.588964     0.665536
 H     4.509124    -3.299686     1.303588
 C     5.738580    -3.387968    -0.444828
 H     4.996913    -3.930821    -1.050825
 H     6.447179    -4.125593    -0.037297
 H     6.302408    -2.723862    -1.121531
 C     6.099856    -1.882362     1.537037
 H     6.826461    -2.598032     1.951932
 H     5.635220    -1.355894     2.384459
 H     6.664702    -1.138551     0.949324
 H     1.345473     1.420197    -1.302069
 H     2.391321     0.115395    -1.802164
 C     3.433285     1.746151    -0.776283
 H     3.421525     2.173567     0.239779
 H     4.364439     1.157422    -0.836755
 C     3.510065     2.896221    -1.784449
 H     2.569850     3.473763    -1.691889
 C     4.670061     3.825388    -1.449382
 H     4.589905     4.217621    -0.423238
 H     4.709076     4.684284    -2.137361
 H     5.633422     3.294293    -1.527572
 C     3.598409     2.395834    -3.221255
 H     3.653604     3.236680    -3.930117
 H     2.723170     1.789884    -3.497274
 H     4.500988     1.778063    -3.365695
 C    -0.757181     1.085922    -3.042861
 H    -0.828240     0.061046    -3.417345
 C    -0.971824     2.680869    -1.248569
 H    -1.237120     2.923272    -0.218103
 C    -0.267991     2.094848    -3.866617
 H     0.010243     1.866386    -4.898419
 C    -0.456875     3.700600    -2.057819
 C    -0.248400     5.081249    -1.505614
 H    -0.524797     5.856381    -2.235644
 H    -0.840010     5.243219    -0.593236
 H     0.811665     5.245540    -1.246630
 C    -0.110371     3.391187    -3.377144
 H     0.292150     4.172600    -4.027648
 H    -2.814033    -1.087561    -2.409131
 H    -3.765656     0.227489    -1.698934
 C    -3.869531    -1.670436    -0.608753
 H    -3.132469    -2.314689    -0.099139
 H    -4.430504    -1.160978     0.195456
 C    -4.829069    -2.561717    -1.399152
 H    -4.226474    -3.074732    -2.171483
 C    -5.426812    -3.629475    -0.491370
 H    -4.639678    -4.236012    -0.017422
 H    -6.085613    -4.310596    -1.052080
 H    -6.027905    -3.171805     0.312568
 C    -5.919982    -1.759303    -2.098874
 H    -6.599430    -2.418383    -2.661392
 H    -5.504536    -1.029644    -2.810463
 H    -6.528388    -1.202842    -1.365313
 H    -1.362753     1.315551     1.319602
 H    -2.378073    -0.077942     1.595693
 C    -3.447558     1.647034     0.786260
 H    -3.413874     2.233398    -0.147010
 H    -4.354434     1.021793     0.711252
 C    -3.606609     2.617498     1.960211
 H    -2.697383     3.249191     1.984222
 C    -4.808286     3.528623     1.743216
 H    -4.730654     4.078001     0.791777
 H    -4.904986     4.268260     2.553260
 H    -5.743235     2.944439     1.713892
 C    -3.695476     1.893435     3.298534
 H    -3.811629     2.607938     4.128553
 H    -2.794129     1.295889     3.499193
 H    -4.564397     1.213989     3.320209
