 100
scf done:    -2904.555971
 C     1.415908    -1.814400    -2.495923
 H     1.400707    -1.650294    -3.585708
 H     2.468126    -1.665184    -2.204523
 C     0.999415    -3.245198    -2.179510
 H    -0.028057    -3.451077    -2.521513
 H     1.663545    -3.984950    -2.665359
 H     1.031909    -3.451569    -1.096883
Ir     0.034625    -0.556178    -1.460413
 C     2.553668    -1.735198     0.604750
 C     3.155409     0.803298    -0.936764
 C     1.722023     0.903589     1.459578
 C    -2.155465     1.967433     0.009018
 C    -3.426770    -0.437564    -0.703911
 C    -1.613844    -0.698986     1.525510
 P    -1.770556     0.141103    -0.100978
 P     1.864666    -0.151127    -0.045536
 C    -0.707560    -0.208603    -3.106009
 O    -0.992145     0.178391    -4.162866
 C     1.639774    -2.371022     1.462736
 H     0.703802    -1.865153     1.707767
 C     3.737379    -2.411838     0.241289
 C     4.793896    -1.875123    -0.681462
 H     5.441249    -1.158609    -0.155138
 H     4.375313    -1.354375    -1.550862
 H     5.426130    -2.695359    -1.048120
 C     1.882624    -3.627420     2.001364
 H     1.147559    -4.078435     2.671625
 C     3.951771    -3.688955     0.785749
 H     4.862133    -4.223107     0.499950
 C     3.055488    -4.294887     1.657440
 H     3.267182    -5.291059     2.053561
 C     2.908293     1.225182    -2.242244
 H     1.980936     0.884620    -2.712566
 C     4.320225     1.254498    -0.284152
 O     4.529384     0.793737     0.964117
 C     5.525431     1.367128     1.761500
 H     6.538025     1.141915     1.382555
 H     5.413263     0.928243     2.761021
 H     5.403951     2.461377     1.835808
 C     3.794132     2.069982    -2.909139
 H     3.583147     2.384907    -3.933003
 C     5.202943     2.115808    -0.942075
 H     6.105690     2.468671    -0.442636
 C     4.936372     2.515499    -2.251713
 H     5.637428     3.184609    -2.757183
 C     2.064995     0.497176     2.747144
 H     2.462179    -0.507551     2.897954
 C     1.257293     2.223276     1.269318
 O     1.020535     2.589007     0.003221
 C     0.777263     3.935007    -0.299765
 H    -0.173853     4.284474     0.132816
 H     0.710333     3.995892    -1.391985
 H     1.605208     4.574962     0.052280
 C     1.910756     1.347586     3.842130
 H     2.182060     1.002922     4.842300
 C     1.085081     3.075727     2.366556
 H     0.703684     4.086344     2.220136
 C     1.405546     2.629849     3.648887
 H     1.267616     3.302763     4.498953
 C    -2.062263     2.498485    -1.292277
 H    -1.692504     1.854227    -2.092106
 C    -2.602190     2.815983     1.047247
 C    -2.759802     2.445529     2.493929
 H    -1.839599     2.670091     3.057612
 H    -2.992094     1.387134     2.629335
 H    -3.564735     3.043913     2.945205
 C    -2.421295     3.803879    -1.597234
 H    -2.348819     4.159888    -2.627308
 C    -2.929631     4.144174     0.718115
 H    -3.275980     4.798991     1.523038
 C    -2.858610     4.642451    -0.575932
 H    -3.143135     5.677073    -0.782652
 C    -3.524596    -1.102013    -1.924812
 H    -2.602084    -1.301955    -2.470883
 C    -4.608196    -0.243040     0.040138
 O    -4.484543     0.346981     1.246062
 C    -5.624423     0.548759     2.031412
 H    -6.349968     1.216967     1.535997
 H    -5.283731     1.021364     2.960935
 H    -6.123888    -0.404004     2.278465
 C    -4.746848    -1.534853    -2.435380
 H    -4.784717    -2.046338    -3.399244
 C    -5.840614    -0.670834    -0.466593
 H    -6.756417    -0.511137     0.102115
 C    -5.906337    -1.309161    -1.703513
 H    -6.876763    -1.635288    -2.086075
 C    -1.074468    -0.107610     2.666529
 H    -0.765759     0.934141     2.634309
 C    -1.873160    -2.091485     1.563443
 O    -2.237521    -2.660247     0.404355
 C    -2.352668    -4.050134     0.301143
 H    -1.404352    -4.552316     0.559355
 H    -2.595759    -4.258973    -0.748093
 H    -3.161773    -4.443406     0.940985
 C    -0.888962    -0.826078     3.848578
 H    -0.465331    -0.325548     4.720574
 C    -1.705973    -2.811975     2.749603
 H    -1.930437    -3.878317     2.777645
 C    -1.227028    -2.172575     3.893047
 H    -1.094775    -2.746466     4.813459
