  96
scf done:    -3000.707209
 C     1.091124    -2.301499    -3.201540
 H     0.766732    -2.084124    -4.233850
 H     2.106966    -1.867146    -3.141535
 C     1.169682    -3.815053    -3.019510
 H     0.192078    -4.290689    -3.196171
 H     1.889414    -4.285939    -3.714814
 H     1.470132    -4.103513    -1.999038
Ir    -0.259097    -1.286325    -1.878845
 C     1.337613    -0.299376     1.168247
 C     2.888722    -2.088520    -0.427783
 C     2.625269     0.637946    -1.465383
 C    -1.275913     1.845985    -0.869293
 C    -3.453887     0.070848    -1.371701
 C    -2.052440    -0.076053     1.122744
 P    -1.716757     0.075677    -0.685935
 P     1.653351    -0.705063    -0.594044
 C    -1.615275    -2.043227    -2.887329
 O    -2.441751    -2.578880    -3.487052
 C     1.363651     0.979495     1.734720
 H     1.652742     1.846996     1.147663
 C     0.920603    -1.379503     1.962503
 H     0.850814    -2.379457     1.526278
 C     0.998731     1.150950     3.070359
 H     1.029982     2.152403     3.506632
 C     0.541160    -1.219822     3.297135
 C     0.032393    -2.386548     4.089892
 H     0.147166    -2.222202     5.170555
 H    -1.039356    -2.547057     3.885889
 H     0.555046    -3.316212     3.822963
 C     0.594280     0.068418     3.845501
 H     0.305765     0.221285     4.888882
 H     2.392430    -2.868275     0.167171
 H     2.998825    -2.498674    -1.440080
 C     4.222044    -1.716390     0.142752
 C     5.326111    -1.549104    -0.704018
 H     5.212220    -1.727884    -1.776758
 C     4.406317    -1.506847     1.517447
 H     3.565525    -1.633962     2.201546
 C     6.571566    -1.167029    -0.209737
 H     7.433307    -1.035676    -0.866273
 C     5.643248    -1.125396     2.028003
 H     5.792053    -0.958823     3.096310
 C     6.712418    -0.954500     1.155581
 F     7.896933    -0.587763     1.640566
 H     3.469591     0.103080    -1.927179
 H     1.961274     0.947220    -2.284194
 C     3.108182     1.844856    -0.718743
 C     2.408819     3.051493    -0.837522
 H     1.532616     3.103356    -1.486273
 C     4.226721     1.804171     0.122609
 H     4.794438     0.880069     0.227725
 C     2.787090     4.180941    -0.116523
 H     2.237903     5.120326    -0.202275
 C     4.619432     2.924480     0.848604
 H     5.485979     2.896332     1.511583
 C     3.887959     4.100117     0.726889
 F     4.253032     5.172820     1.428640
 C    -1.054923     2.302725    -2.178824
 H    -1.075119     1.587006    -3.006315
 C    -1.203274     2.754090     0.187674
 H    -1.362590     2.415722     1.213166
 C    -0.822852     3.653705    -2.413569
 H    -0.674411     4.011438    -3.435349
 C    -0.933204     4.112453    -0.031125
 C    -0.812576     5.051982     1.132140
 H    -1.624998     4.898076     1.858195
 H     0.138278     4.887226     1.666263
 H    -0.835224     6.102489     0.810123
 C    -0.767158     4.553454    -1.346404
 H    -0.579306     5.613346    -1.539069
 H    -3.348505     0.337168    -2.434361
 H    -3.778158    -0.980569    -1.338218
 C    -4.423941     0.959472    -0.659483
 C    -5.298520     0.431808     0.299669
 H    -5.297418    -0.644137     0.491207
 C    -4.453014     2.342269    -0.891180
 H    -3.787898     2.779280    -1.639055
 C    -6.165664     1.250365     1.019105
 H    -6.851035     0.842953     1.764623
 C    -5.313930     3.174353    -0.181321
 H    -5.341666     4.250964    -0.358552
 C    -6.157933     2.617134     0.771433
 F    -6.982049     3.409900     1.456884
 H    -1.110408     0.165076     1.636691
 H    -2.781440     0.698427     1.406317
 C    -2.548637    -1.425481     1.566921
 C    -2.087896    -2.622410     1.001403
 H    -1.381340    -2.580919     0.160481
 C    -3.471183    -1.503937     2.618613
 H    -3.849732    -0.581907     3.067953
 C    -2.526052    -3.857371     1.474135
 H    -2.174985    -4.791378     1.031160
 C    -3.916029    -2.730820     3.105818
 H    -4.633981    -2.796271     3.925415
 C    -3.433490    -3.897584     2.524906
 F    -3.855717    -5.075936     2.982669
