  84
scf done:    -2295.484442
 C     1.725935    -1.677538    -2.136940
 H     1.523208    -1.842753    -3.207924
 H     2.578749    -0.978426    -2.106004
 C     2.137572    -2.988266    -1.474175
 H     1.337024    -3.744389    -1.524320
 H     3.031641    -3.429510    -1.953376
 H     2.383358    -2.847787    -0.408477
Ir    -0.013130    -0.964996    -1.084625
 C     2.761689    -0.016569     0.807110
 O     2.284716     1.436005    -1.343294
 O     0.727712     1.801580     0.658396
 C    -2.953993     0.704303     0.136012
 O    -2.725693    -1.840017     0.653410
 O    -1.097868    -0.282844     1.897536
 P    -1.695656    -0.586628     0.393483
 P     1.414844     0.609904    -0.231827
 C    -1.089077    -1.818856    -2.358006
 O    -1.749557    -2.205139    -3.219331
 C     2.379708    -0.782477     1.917679
 H     1.316227    -0.936210     2.126354
 C     4.110949     0.185326     0.520693
 H     4.381994     0.775697    -0.357943
 C     3.361816    -1.318076     2.742645
 H     3.078005    -1.909961     3.616268
 C     5.107219    -0.358329     1.342261
 C     6.558106    -0.163701     1.010111
 H     6.872086    -0.853589     0.209299
 H     6.755025     0.857835     0.652415
 H     7.201794    -0.353092     1.880777
 C     4.711635    -1.104960     2.456780
 H     5.476106    -1.533720     3.110919
 C     1.785349     1.667358    -2.670869
 H     1.196399     0.778763    -2.961398
 C     2.993719     1.804228    -3.569048
 H     3.611556     0.896267    -3.521164
 H     3.610086     2.664063    -3.262718
 H     2.680702     1.955468    -4.612543
 C     0.879392     2.881696    -2.685855
 H    -0.001006     2.715703    -2.048666
 H     1.415517     3.774924    -2.328554
 H     0.521235     3.076698    -3.707658
 C     1.471122     2.925108     1.156291
 H     2.378568     3.042966     0.538866
 C     1.866443     2.696342     2.602442
 H     2.519403     1.820407     2.707452
 H     0.971274     2.536793     3.221646
 H     2.403159     3.575351     2.990146
 C     0.590649     4.145571     0.982330
 H     0.335468     4.297228    -0.075242
 H    -0.345111     4.020653     1.548869
 H     1.102791     5.047246     1.349833
 C    -4.326543     0.468285     0.258129
 H    -4.678568    -0.529432     0.524361
 C    -2.494115     1.972713    -0.232519
 H    -1.416174     2.135098    -0.318518
 C    -5.220931     1.510736     0.026699
 H    -6.295889     1.335198     0.116716
 C    -3.383116     3.026282    -0.464335
 C    -2.872290     4.388422    -0.836498
 H    -2.456715     4.909527     0.041508
 H    -2.066622     4.322693    -1.583078
 H    -3.670745     5.020302    -1.250327
 C    -4.753981     2.774885    -0.328688
 H    -5.467475     3.582597    -0.515121
 C    -2.300615    -3.200770     0.516553
 H    -1.354848    -3.204852    -0.058535
 C    -3.367146    -3.932057    -0.268929
 H    -3.498588    -3.472369    -1.258775
 H    -4.330515    -3.895545     0.263537
 H    -3.088216    -4.986762    -0.410769
 C    -2.041621    -3.791374     1.887409
 H    -1.229965    -3.248022     2.391046
 H    -2.945678    -3.731803     2.513474
 H    -1.745327    -4.847537     1.802728
 C    -1.925067    -0.054943     3.044923
 H    -2.914487    -0.511030     2.862163
 C    -2.085805     1.434080     3.287026
 H    -2.586287     1.926639     2.443673
 H    -1.098463     1.899231     3.422351
 H    -2.682910     1.609997     4.194486
 C    -1.263810    -0.753733     4.216109
 H    -1.168759    -1.832172     4.030421
 H    -0.256835    -0.340227     4.382799
 H    -1.852635    -0.611361     5.134496
