  92
scf done:    -3072.518216
 C    -1.490471    -1.798138    -3.418670
 H    -1.206739    -2.688848    -4.000806
 H    -2.452684    -2.067231    -2.952024
 C    -1.672731    -0.624036    -4.376964
 H    -0.741643    -0.400545    -4.920997
 H    -2.451997    -0.821755    -5.136374
 H    -1.956900     0.309822    -3.859935
Ir     0.008034    -1.275148    -1.983028
 O    -1.282500     1.589910    -0.891285
 C    -3.366134    -0.281168    -1.211835
 C    -1.526538    -0.318483     1.033063
 O     1.801903    -0.184025     0.832429
 C     3.403425    -1.107462    -1.173524
 C     1.993227     1.475407    -1.231062
 P     1.757003    -0.326090    -0.840589
 P    -1.583366    -0.050810    -0.779516
 C     1.005444    -2.711272    -2.611273
 O     1.564699    -3.674481    -2.905893
 C    -2.103234     2.660329    -0.650539
 C    -2.507614     3.424735    -1.744961
 H    -2.193533     3.116692    -2.744346
 C    -2.455624     3.040497     0.645507
 H    -2.108084     2.459446     1.500194
 C    -3.297181     4.553931    -1.543344
 H    -3.613688     5.150517    -2.402216
 C    -3.254668     4.165173     0.835052
 H    -3.542075     4.453242     1.848701
 C    -3.681436     4.922844    -0.254682
 H    -4.304608     5.805714    -0.098033
 H    -3.456485    -0.009757    -2.273571
 H    -3.485043    -1.376117    -1.166848
 C    -4.412102     0.402904    -0.381594
 C    -4.747076    -0.065043     0.896052
 H    -4.268932    -0.966105     1.287718
 C    -5.094335     1.520901    -0.876011
 H    -4.868946     1.889186    -1.878505
 C    -5.691670     0.593231     1.679304
 H    -5.955242     0.235142     2.676128
 C    -6.042440     2.188253    -0.108910
 H    -6.564351     3.068706    -0.486596
 C    -6.319486     1.722616     1.170090
 F    -7.216275     2.364332     1.918018
 H    -0.520112     0.018697     1.329687
 H    -2.248531     0.373839     1.492405
 C    -1.786728    -1.716322     1.534407
 C    -1.772635    -2.848378     0.711980
 H    -1.518569    -2.745440    -0.350371
 C    -2.041685    -1.894736     2.900425
 H    -2.048596    -1.025913     3.563786
 C    -2.010533    -4.119332     1.229557
 H    -1.995543    -5.004039     0.590498
 C    -2.272814    -3.157338     3.435352
 H    -2.461254    -3.302079     4.500454
 C    -2.254953    -4.258744     2.588158
 F    -2.473835    -5.471949     3.093908
 C     1.665901    -1.181184     1.746401
 C     1.751501    -0.790774     3.087392
 H     1.928659     0.263672     3.309649
 C     1.445343    -2.519843     1.416030
 H     1.333772    -2.814846     0.370787
 C     1.613400    -1.742199     4.092394
 H     1.680443    -1.431820     5.138021
 C     1.311255    -3.462108     2.435501
 H     1.125766    -4.505623     2.171704
 C     1.392949    -3.083135     3.772444
 H     1.281709    -3.828038     4.562898
 H     3.328753    -2.126465    -0.759831
 H     3.435775    -1.223612    -2.267938
 C     4.620492    -0.398890    -0.668991
 C     5.482600     0.251291    -1.560406
 H     5.274446     0.215774    -2.633295
 C     4.923719    -0.356623     0.699174
 H     4.276757    -0.865750     1.415989
 C     6.606338     0.941829    -1.109893
 H     7.283294     1.448911    -1.799613
 C     6.037379     0.332695     1.165596
 H     6.274086     0.378937     2.229905
 C     6.863381     0.980532     0.254352
 F     7.926456     1.649105     0.699032
 H     2.752008     1.511228    -2.028225
 H     1.035514     1.787587    -1.671678
 C     2.360055     2.376419    -0.086614
 C     1.367760     2.824375     0.794450
 H     0.332979     2.528893     0.620445
 C     3.677705     2.782029     0.140409
 H     4.469458     2.452367    -0.533977
 C     1.676844     3.639643     1.877674
 H     0.905708     3.998033     2.562182
 C     4.007302     3.596725     1.221278
 H     5.036822     3.910429     1.403243
 C     3.000757     4.011688     2.082059
 F     3.306265     4.789491     3.121772
