 104
scf done:    -2832.885977
 C    -2.070821    -2.717640    -2.387225
 H    -1.758131    -3.724382    -2.704764
 H    -2.950017    -2.888888    -1.744829
 C    -2.454023    -1.905748    -3.621132
 H    -1.611108    -1.820247    -4.324936
 H    -3.295101    -2.361063    -4.177027
 H    -2.755420    -0.871286    -3.376086
Ir    -0.495115    -1.682785    -1.381244
 O    -1.891528     1.221798    -0.490868
 C    -3.864511    -0.733790    -0.518790
 C    -1.882874    -0.660623     1.600693
 O     1.509658    -0.283759     0.943329
 C     2.881618    -0.978047    -1.443158
 C     1.218541     1.427340    -1.193394
 P     1.275824    -0.371602    -0.724319
 P    -2.064834    -0.419639    -0.224784
 C     0.576675    -3.178624    -1.603080
 O     1.192481    -4.155624    -1.549644
 C    -2.397172     2.391634    -0.004432
 C    -2.422361     3.457841    -0.908142
 H    -2.099443     3.276478    -1.934875
 C    -2.786658     2.593836     1.319984
 H    -2.758567     1.778128     2.038257
 C    -2.847666     4.714700    -0.492115
 H    -2.855852     5.541841    -1.206210
 C    -3.228079     3.853703     1.720084
 H    -3.546622     3.997534     2.755124
 C    -3.260265     4.919908     0.824608
 H    -3.600224     5.904829     1.150880
 H    -3.969442    -0.853598    -1.606019
 H    -4.044660    -1.724358    -0.071741
 C    -4.813546     0.302988    -0.002298
 C    -5.335258     0.247229     1.295175
 H    -5.099898    -0.600445     1.941952
 C    -5.176197     1.377741    -0.820807
 H    -4.782354     1.421181    -1.840616
 C    -6.171503     1.258625     1.760515
 H    -6.577812     1.203335     2.773407
 C    -6.008780     2.405110    -0.369991
 C    -6.333063     3.570879    -1.255806
 H    -5.549731     4.341586    -1.168553
 H    -6.384660     3.272793    -2.313036
 H    -7.290693     4.035271    -0.980240
 C    -6.498812     2.333545     0.939068
 H    -7.153157     3.125677     1.312659
 H    -0.937317    -0.164290     1.869613
 H    -2.714422    -0.161220     2.116567
 C    -1.843965    -2.123735     1.945735
 C    -3.005514    -2.812765     2.311959
 H    -3.952657    -2.277154     2.409771
 C    -0.641811    -2.831042     1.858437
 H     0.260660    -2.282815     1.585225
 C    -2.959299    -4.180810     2.567318
 H    -3.870110    -4.711319     2.854965
 C    -0.577069    -4.205092     2.110170
 C     0.727992    -4.935666     1.984578
 H     1.503875    -4.474407     2.615593
 H     0.631327    -5.988890     2.282912
 H     1.089594    -4.912694     0.943886
 C    -1.755182    -4.872625     2.460576
 H    -1.725904    -5.947570     2.658246
 C     2.635067    -0.542724     1.666291
 C     3.267617     0.500289     2.345808
 H     2.870859     1.511299     2.254610
 C     3.119382    -1.849828     1.773229
 H     2.600728    -2.661068     1.258674
 C     4.400323     0.231664     3.109355
 H     4.895800     1.051815     3.634763
 C     4.259839    -2.104582     2.533699
 H     4.639155    -3.126654     2.606483
 C     4.908167    -1.065475     3.200234
 H     5.801212    -1.267209     3.795676
 H     3.138296    -1.891900    -0.886725
 H     2.546142    -1.317935    -2.435710
 C     4.062505    -0.066930    -1.588181
 C     4.243404     0.653577    -2.777303
 H     3.531926     0.530404    -3.598764
 C     5.012739     0.073417    -0.573123
 H     4.904948    -0.504585     0.345625
 C     5.332289     1.507992    -2.926212
 H     5.467202     2.059651    -3.859634
 C     6.105097     0.937145    -0.699752
 C     7.066890     1.101110     0.439896
 H     6.624676     1.733655     1.227401
 H     7.303409     0.133404     0.906295
 H     8.005859     1.572410     0.116731
 C     6.253856     1.656226    -1.890946
 H     7.107087     2.329164    -2.013111
 H     1.756408     1.509307    -2.149780
 H     0.154805     1.622704    -1.385219
 C     1.751869     2.401269    -0.183022
 C     0.948430     2.794502     0.893392
 H    -0.060945     2.395815     0.988540
 C     3.041809     2.933144    -0.283924
 H     3.678429     2.637565    -1.119927
 C     1.429290     3.693304     1.841055
 H     0.788009     3.993552     2.673327
 C     3.542567     3.834056     0.661854
 C     4.922670     4.408346     0.518146
 H     5.512009     3.846112    -0.219027
 H     4.881425     5.458319     0.184091
 H     5.464901     4.396548     1.476161
 C     2.720091     4.206082     1.732080
 H     3.093831     4.908614     2.482518
