  60
scf done:    -1981.176662
 C    -0.796991    -3.284520    -0.783328
 H    -0.037965    -4.074299    -0.902013
 H    -1.438935    -3.602168     0.053854
 C    -1.633173    -3.182679    -2.056094
 H    -2.096565    -4.152062    -2.319908
 H    -2.455358    -2.458082    -1.942640
 H    -1.031192    -2.866791    -2.923489
Ir     0.092757    -1.381036    -0.368400
 C    -2.540638     0.902980     0.448692
 O    -3.124195    -1.725132     0.501991
 O    -1.706845    -0.688041     2.375192
 C     2.674010     1.046318    -0.219749
 O     0.254455     1.785208    -1.155472
 O     0.541530     1.323153     1.415777
 P     0.884961     0.713811    -0.078848
 P    -1.839685    -0.748766     0.749968
 C     1.749188    -2.099961    -0.863609
 O     2.783997    -2.556047    -1.067664
 C    -2.721236     1.847062     1.463495
 H    -2.462405     1.582713     2.489935
 C    -2.845661     1.230297    -0.873918
 H    -2.664807     0.494157    -1.664173
 C    -3.221719     3.105737     1.141452
 H    -3.373530     3.849899     1.927513
 C    -3.343176     2.493649    -1.210808
 C    -3.637847     2.834500    -2.642367
 H    -2.728037     2.755186    -3.258692
 H    -4.377911     2.142495    -3.073709
 H    -4.030016     3.856056    -2.743596
 C    -3.530413     3.423325    -0.181836
 H    -3.917259     4.417307    -0.423818
 C    -4.356247    -1.506653     1.154522
 H    -4.233837    -1.522945     2.249193
 H    -4.800465    -0.540545     0.861069
 H    -5.030964    -2.319074     0.853352
 C    -0.648300    -1.333966     3.059114
 H    -1.036038    -2.212447     3.597669
 H     0.134594    -1.650524     2.347507
 H    -0.219941    -0.622470     3.779510
 C     3.218209     1.611321    -1.375733
 H     2.558170     1.935749    -2.183175
 C     3.523772     0.596569     0.797972
 H     3.091665     0.134021     1.691180
 C     4.601196     1.741021    -1.491563
 H     5.032292     2.186883    -2.391281
 C     4.911244     0.714016     0.690835
 C     5.816516     0.191859     1.767869
 H     6.702421     0.830947     1.896828
 H     5.297121     0.123269     2.734191
 H     6.176309    -0.819455     1.515690
 C     5.436219     1.300887    -0.468759
 H     6.519933     1.405258    -0.572235
 C     0.207899     3.180411    -0.974424
 H    -0.536848     3.450598    -0.209242
 H     1.191090     3.599476    -0.698512
 H    -0.103980     3.625107    -1.930129
 C     1.053538     2.489128     2.017017
 H     1.962547     2.856781     1.513988
 H     0.289748     3.282904     2.011920
 H     1.308878     2.255234     3.061926
