 102
scf done:    -3054.991559
 C    -0.804781    -0.348333    -3.382350
 H    -0.988934    -1.343236    -3.825177
 H    -1.812342     0.062178    -3.198188
 C    -0.076087     0.530731    -4.393036
 H     0.888071     0.092693    -4.698109
 H    -0.669749     0.687104    -5.312755
 H     0.152638     1.530563    -3.985994
Ir     0.334342    -0.544786    -1.575643
 O    -1.532958    -0.204048     1.272633
 C    -1.929859     1.879736    -0.260323
 C    -3.098958    -0.688944    -0.854210
 O     1.785305    -0.964748     1.650629
 C     3.477749     0.066125    -0.179022
 C     1.306980     1.502575     0.948533
 P     1.703836    -0.111384     0.208064
 P    -1.544233     0.112499    -0.371739
 C     1.549425    -1.609460    -2.507188
 O     2.216049    -2.397736    -3.020030
 C    -1.614871    -1.458582     1.811225
 C    -1.103826    -2.587399     1.173708
 H    -0.601690    -2.475355     0.206901
 C    -2.228322    -1.546619     3.071719
 C    -2.770105    -0.313272     3.726635
 H    -3.177797    -0.539800     4.721139
 H    -1.989760     0.456760     3.836976
 H    -3.573870     0.134654     3.119912
 C    -1.196299    -3.830684     1.793758
 H    -0.768132    -4.706037     1.300938
 C    -2.304792    -2.806043     3.670565
 H    -2.776024    -2.890349     4.653889
 C    -1.796049    -3.943846     3.044405
 H    -1.862538    -4.915648     3.538314
 C    -1.759371     2.680366    -1.400528
 H    -1.384606     2.234440    -2.325202
 C    -2.379951     2.471990     0.919740
 H    -2.484058     1.863548     1.817918
 C    -2.048526     4.034181    -1.358964
 H    -1.919792     4.669751    -2.236888
 C    -2.674681     3.832902     0.971207
 H    -3.003710     4.268987     1.913904
 C    -2.505589     4.621578    -0.169572
 O    -2.734233     5.951316    -0.207756
 C    -3.316115     6.563577     0.912042
 H    -2.671237     6.488267     1.804589
 H    -3.450798     7.622240     0.656844
 H    -4.299994     6.122405     1.148212
 C    -4.340120    -0.172535    -0.449551
 H    -4.386182     0.779439     0.085278
 C    -3.067275    -1.901046    -1.546344
 H    -2.103106    -2.302741    -1.868767
 C    -5.512042    -0.851715    -0.732730
 H    -6.485560    -0.461143    -0.431076
 C    -4.238961    -2.595254    -1.835318
 H    -4.178782    -3.538725    -2.377474
 C    -5.471427    -2.072380    -1.426066
 O    -6.657458    -2.661003    -1.654970
 C    -6.687675    -3.884714    -2.337483
 H    -6.132024    -4.669403    -1.795112
 H    -7.742319    -4.179198    -2.406850
 H    -6.273753    -3.795223    -3.357018
 C     2.016624    -2.302738     1.767015
 C     2.431730    -3.102498     0.703262
 H     2.602349    -2.664767    -0.280190
 C     1.819172    -2.843325     3.049470
 C     1.359960    -1.958349     4.165032
 H     2.043406    -1.106631     4.308583
 H     0.365912    -1.541745     3.938951
 H     1.290829    -2.515844     5.108736
 C     2.626605    -4.469128     0.902119
 H     2.944535    -5.090203     0.061560
 C     2.034197    -4.210334     3.220495
 H     1.875410    -4.643002     4.212084
 C     2.427393    -5.028242     2.160502
 H     2.583453    -6.097173     2.321786
 C     4.448894    -0.049826     0.828331
 H     4.141611    -0.287941     1.848934
 C     3.889599     0.377445    -1.474564
 H     3.141816     0.471316    -2.267132
 C     5.790354     0.126418     0.537666
 H     6.557648     0.026711     1.307645
 C     5.237154     0.570380    -1.777587
 H     5.523411     0.811228    -2.801377
 C     6.197693     0.439400    -0.768995
 O     7.521570     0.591778    -0.956494
 C     7.992786     0.891899    -2.240470
 H     7.595643     1.854101    -2.609311
 H     9.085123     0.964675    -2.165698
 H     7.736420     0.100670    -2.966787
 C     0.886716     1.669521     2.273222
 H     0.843876     0.804204     2.935224
 C     1.347071     2.616372     0.107336
 H     1.658161     2.498269    -0.934765
 C     0.513337     2.923496     2.735958
 H     0.176528     3.070622     3.764076
 C     0.981257     3.878611     0.562869
 H     1.010348     4.722749    -0.125187
 C     0.550678     4.035797     1.884310
 O     0.145734     5.211581     2.408515
 C     0.285783     6.371167     1.632328
 H    -0.345227     6.342461     0.727445
 H    -0.033904     7.211004     2.262883
 H     1.335365     6.533799     1.330828
