  56
scf done:    -2251.398025
 C     3.506635    -0.880060    -1.501121
 H     3.514761    -1.552226    -2.373708
 H     3.698803     0.130110    -1.897391
 C     4.628258    -1.288188    -0.550452
 H     4.465112    -2.294211    -0.131829
 H     5.608787    -1.304918    -1.060374
 H     4.723213    -0.598916     0.304154
Ir     1.558773    -0.858765    -0.583429
 O     1.234321     2.177252     1.029369
 O     3.020758     0.786614     1.986316
 O     3.421956     1.876067    -0.199098
 O    -1.749117    -0.630713    -0.582817
 O    -0.964001    -2.412376     0.937881
 O    -0.684721    -0.017757     1.712003
 P    -0.464916    -0.943310     0.383756
 P     2.301750     1.005505     0.554462
 C     1.257448    -2.448024    -1.540700
 O     1.114283    -3.424714    -2.121887
 C     0.157288     2.584468     0.297437
 C    -0.895735     3.173867     0.998980
 H    -0.816706     3.262160     2.083511
 C     0.090791     2.451639    -1.090947
 H     0.915879     1.995966    -1.643347
 C    -2.017550     3.631425     0.317654
 H    -2.853749     4.095838     0.843519
 C    -1.040792     2.893362    -1.773909
 H    -1.123894     2.782910    -2.856166
 C    -2.077195     3.481241    -1.063904
 F    -3.171517     3.886663    -1.713359
 C     2.505047    -0.153898     2.912116
 H     1.510683     0.153328     3.270026
 H     2.428298    -1.151609     2.449963
 H     3.208261    -0.191667     3.753672
 C     4.031776     3.012267     0.391256
 H     3.274003     3.745742     0.706377
 H     4.636012     2.717434     1.261520
 H     4.679034     3.458224    -0.374106
 C    -3.096252    -0.745437    -0.340959
 C    -3.874552     0.408101    -0.437575
 H    -3.388346     1.355214    -0.668774
 C    -3.693964    -1.979465    -0.078939
 H    -3.072120    -2.871790    -0.023885
 C    -5.251246     0.339014    -0.245710
 H    -5.878845     1.228912    -0.318996
 C    -5.070946    -2.049337     0.118728
 H    -5.564449    -3.000169     0.328203
 C    -5.833544    -0.890685     0.037092
 F    -7.151129    -0.961614     0.227271
 C    -0.093116    -3.158047     1.761951
 H     0.933045    -3.158852     1.355456
 H    -0.068246    -2.752650     2.787877
 H    -0.470663    -4.188780     1.795829
 C    -1.852757    -0.016374     2.512362
 H    -2.572394     0.726933     2.138794
 H    -2.333516    -1.006358     2.526475
 H    -1.552588     0.255707     3.534475
