  92
scf done:    -3594.673091
 C     0.793051    -2.843956    -1.882287
 H     1.746294    -3.394366    -1.925712
 H     0.066982    -3.552021    -1.460768
 C     0.371706    -2.452379    -3.293509
 H     1.117137    -1.805306    -3.784446
 H     0.241789    -3.339804    -3.940330
 H    -0.588062    -1.908853    -3.307184
Ir     0.954329    -1.021884    -0.770734
 O    -2.233918     0.040368    -0.942528
 C    -2.191258    -2.672282    -0.806227
 C    -1.659807    -1.116914     1.555687
 O     2.271521     1.517764     1.139731
 C     2.213565     2.047611    -1.558356
 C    -0.030111     2.418602     0.102901
 P     1.303956     1.194441    -0.201017
 P    -1.305493    -1.173192    -0.244707
 C     2.764994    -1.486974    -0.684277
 O     3.825394    -1.916872    -0.575049
 C    -3.350010     0.678322    -0.491821
 C    -4.471709     0.720520    -1.323916
 H    -4.438527     0.219818    -2.292441
 C    -3.372215     1.347025     0.732972
 H    -2.482008     1.361613     1.358611
 C    -5.617535     1.401804    -0.925648
 H    -6.495978     1.437902    -1.571730
 C    -4.519121     2.018328     1.139888
 H    -4.537628     2.544498     2.095381
 C    -5.640637     2.039777     0.313468
Cl    -7.068315     2.883277     0.820912
 C    -3.033190    -2.578352    -1.918345
 H    -3.160208    -1.610892    -2.405113
 C    -1.966214    -3.924266    -0.193539
 C    -1.024955    -4.106739     0.962497
 H    -1.490653    -3.812937     1.916403
 H    -0.116660    -3.494074     0.844096
 H    -0.720536    -5.159227     1.045595
 C    -3.702460    -3.695719    -2.407579
 H    -4.360793    -3.602675    -3.274193
 C    -2.650641    -5.033588    -0.703494
 H    -2.484752    -6.008902    -0.237862
 C    -3.517144    -4.928446    -1.788151
 H    -4.034478    -5.816251    -2.159478
 C    -0.563303    -0.772949     2.357030
 H     0.389410    -0.584957     1.850388
 C    -2.903995    -1.419571     2.159059
 C    -4.131235    -1.876275     1.424217
 H    -4.104864    -2.966155     1.264408
 H    -4.245505    -1.416175     0.437632
 H    -5.030180    -1.642824     2.011485
 C    -0.666633    -0.699455     3.741218
 H     0.203290    -0.431720     4.345708
 C    -2.984926    -1.321892     3.554869
 H    -3.943411    -1.537224     4.034536
 C    -1.893001    -0.968533     4.342058
 H    -2.002626    -0.909131     5.427679
 C     3.407479     0.798172     1.379913
 C     3.387180    -0.212003     2.342247
 H     2.456056    -0.432789     2.865492
 C     4.588675     1.090660     0.695812
 H     4.592645     1.877975    -0.059411
 C     4.541697    -0.935827     2.618358
 H     4.535250    -1.733983     3.361935
 C     5.745209     0.367105     0.967538
 H     6.672111     0.579791     0.433088
 C     5.715617    -0.645027     1.925011
Cl     7.152675    -1.553209     2.257405
 C     2.398194     1.306801    -2.732051
 H     2.003740     0.284652    -2.764084
 C     2.702856     3.373610    -1.480443
 C     2.507546     4.261863    -0.286495
 H     2.707668     3.734696     0.655161
 H     1.467046     4.620481    -0.236348
 H     3.164233     5.140497    -0.348050
 C     3.066176     1.839857    -3.830751
 H     3.197138     1.241443    -4.734908
 C     3.388778     3.880221    -2.590373
 H     3.785703     4.897807    -2.538212
 C     3.571438     3.133265    -3.752617
 H     4.110730     3.568233    -4.597761
 C    -0.743745     2.726842    -1.065781
 H    -0.493384     2.208923    -1.995605
 C    -0.360218     3.065046     1.313865
 C     0.309501     2.812344     2.634896
 H     1.317972     3.249729     2.664858
 H     0.426763     1.742820     2.840758
 H    -0.283311     3.258191     3.445635
 C    -1.751240     3.682270    -1.073684
 H    -2.292712     3.898724    -1.996706
 C    -1.373639     4.035873     1.273816
 H    -1.629473     4.552923     2.202729
 C    -2.058132     4.353957     0.106780
 H    -2.844115     5.112277     0.124046
