  98
scf done:    -2754.335451
 C    -2.321131     0.708397    -2.319351
 H    -2.369309     0.012584    -3.174816
 H    -3.173568     0.424684    -1.680475
 C    -2.505616     2.142596    -2.798164
 H    -1.733136     2.432998    -3.528907
 H    -3.487205     2.286767    -3.285953
 H    -2.452958     2.862712    -1.967131
Ir    -0.442296     0.476858    -1.295246
 O    -3.035924     0.396152     0.943689
 C    -2.565473    -1.977578    -0.210563
 C    -1.069208    -1.056357     1.985158
 O     2.111478    -0.754521     0.728760
 C     3.034003     1.071454    -1.019802
 C     1.520234     1.722704     1.284107
 P     1.520515     0.561993    -0.124014
 P    -1.725293    -0.477119     0.383336
 C     0.323420     0.498071    -2.993755
 O     0.730935     0.337265    -4.059105
 C    -3.186110     1.738518     0.726380
 C    -2.133337     2.629566     0.921012
 H    -1.156422     2.263343     1.242616
 C    -4.456608     2.177875     0.324674
 C    -5.556888     1.185413     0.112108
 H    -6.478203     1.682110    -0.220789
 H    -5.270567     0.437444    -0.644478
 H    -5.774738     0.626969     1.035854
 C    -2.334022     3.991470     0.701669
 H    -1.504227     4.685142     0.848640
 C    -4.631143     3.548944     0.122919
 H    -5.612674     3.910116    -0.195983
 C    -3.584658     4.453931     0.302365
 H    -3.749022     5.519440     0.127930
 C    -3.644727    -2.510429     0.505828
 H    -4.010882    -2.002386     1.400639
 C    -2.095597    -2.620461    -1.353907
 H    -1.265263    -2.163979    -1.902129
 C    -4.239827    -3.683817     0.058868
 H    -5.089301    -4.105142     0.601948
 C    -2.674156    -3.815628    -1.799771
 C    -2.128711    -4.509047    -3.013656
 H    -2.765622    -5.349883    -3.321748
 H    -2.041921    -3.814553    -3.863258
 H    -1.119361    -4.905623    -2.815956
 C    -3.753921    -4.332125    -1.079102
 H    -4.227235    -5.258983    -1.415243
 C    -1.183942    -0.257908     3.126095
 H    -1.674583     0.715495     3.072212
 C    -0.459663    -2.312749     2.072110
 H    -0.383860    -2.942205     1.181178
 C    -0.675486    -0.718887     4.338447
 H    -0.758517    -0.094894     5.231603
 C     0.035588    -2.793007     3.287345
 C     0.610910    -4.175212     3.388217
 H    -0.165148    -4.895162     3.697211
 H     1.013683    -4.512327     2.423348
 H     1.416901    -4.224015     4.135229
 C    -0.071037    -1.970430     4.417451
 H     0.313631    -2.327374     5.377146
 C     2.270523    -2.023364     0.260866
 C     1.764360    -2.467007    -0.960627
 H     1.204263    -1.772487    -1.590938
 C     2.993124    -2.886197     1.104807
 C     3.527603    -2.377541     2.407236
 H     4.172600    -1.496649     2.261037
 H     2.707516    -2.053547     3.067982
 H     4.107484    -3.152616     2.926496
 C     1.953827    -3.793333    -1.345421
 H     1.550804    -4.134281    -2.302218
 C     3.173302    -4.206426     0.687299
 H     3.734586    -4.886454     1.334367
 C     2.656789    -4.669352    -0.523241
 H     2.811939    -5.707702    -0.823885
 C     2.943446     2.024274    -2.038507
 H     1.968913     2.425998    -2.326956
 C     4.283438     0.555032    -0.664900
 H     4.350616    -0.181943     0.138133
 C     4.099758     2.454570    -2.684213
 H     4.031828     3.203744    -3.476514
 C     5.448374     0.962120    -1.321399
 C     6.776532     0.358937    -0.967594
 H     6.797667     0.017059     0.077154
 H     6.989516    -0.517080    -1.602749
 H     7.597726     1.075924    -1.112370
 C     5.338444     1.925181    -2.331790
 H     6.239395     2.262547    -2.851897
 C     1.641952     1.297177     2.606677
 H     1.780223     0.239009     2.826343
 C     1.334764     3.083286     1.003340
 H     1.228492     3.410973    -0.035216
 C     1.569155     2.237164     3.635142
 H     1.652726     1.905903     4.673248
 C     1.274067     4.031960     2.024571
 C     1.102554     5.492185     1.720654
 H     2.008278     6.060396     1.987559
 H     0.907072     5.661299     0.652456
 H     0.268923     5.925796     2.294799
 C     1.387353     3.585618     3.349673
 H     1.331954     4.311005     4.166336
