  64
scf done:    -2828.308371
 C     3.770077    -2.012163     0.029734
 H     4.795987    -1.761071     0.342541
 H     3.432062    -2.751861     0.778050
 C     3.817186    -2.640502    -1.360046
 H     4.227492    -1.938855    -2.103395
 H     4.449643    -3.547597    -1.388554
 H     2.818953    -2.934517    -1.726605
Ir     2.509701    -0.279490    -0.038055
 O    -0.747919    -1.151887    -0.398165
 C     0.700118    -3.428716     0.185355
 C     0.189775    -1.357986     2.178575
 O    -0.011207     1.728860     0.751369
 C     1.938116     3.198986    -0.463987
 C     0.242123     1.464790    -2.034921
 P     1.168658     1.531272    -0.444994
 P     0.661755    -1.604494     0.427202
 C     4.007865     0.724635     0.400870
 O     4.893003     1.330795     0.824176
 C    -1.923459    -1.840350    -0.398171
 C    -2.856913    -1.670388     0.628745
 H    -2.632700    -0.992280     1.453368
 C    -2.223163    -2.676445    -1.476379
 H    -1.497080    -2.777418    -2.285187
 C    -4.066852    -2.357637     0.593515
 H    -4.799806    -2.232727     1.392110
 C    -3.430521    -3.366041    -1.515146
 H    -3.669429    -4.025006    -2.351345
 C    -4.346159    -3.209581    -0.474488
Cl    -5.848356    -4.068961    -0.516812
 H     1.754292    -3.704526     0.343596
 C    -0.212805    -4.305537     1.030974
 H    -1.276810    -4.071133     0.888468
 H     0.013462    -4.211811     2.103176
 H     0.519717    -3.582065    -0.891284
 H    -0.069397    -5.362986     0.760943
 H    -0.706580    -1.957796     2.401520
 C     1.328106    -1.672676     3.139594
 H     2.209939    -1.060136     2.899575
 H     1.633215    -2.729694     3.090216
 H    -0.085320    -0.292474     2.230752
 H     1.025020    -1.462295     4.176049
 C    -1.136602     2.487798     0.655701
 C    -2.313166     1.921910     0.157346
 H    -2.296008     0.885839    -0.179990
 C    -1.139088     3.810313     1.105325
 H    -0.222811     4.233843     1.520210
 C    -3.478711     2.677137     0.085715
 H    -4.399369     2.242059    -0.306502
 C    -2.302947     4.571120     1.034211
 H    -2.314057     5.605488     1.381571
 C    -3.467423     4.003153     0.518780
Cl    -4.916220     4.949038     0.426746
 H     2.384294     3.328906     0.535405
 C     2.992944     3.359175    -1.549732
 H     2.558660     3.289340    -2.558378
 H     3.772901     2.588265    -1.472013
 H     1.143595     3.955611    -0.567974
 H     3.484668     4.340009    -1.468112
 H    -0.489014     0.653158    -1.897646
 C    -0.394747     2.727106    -2.599741
 H     0.351737     3.506062    -2.812669
 H    -1.145205     3.158465    -1.923850
 H     0.991442     1.058419    -2.736321
 H    -0.902383     2.497771    -3.549474
