  52
scf done:    -1950.632786
 C    -3.940354     1.161701     0.437675
 H    -4.781151     0.637376     0.919221
 H    -3.659454     1.946020     1.164475
 C    -4.431206     1.802518    -0.857704
 H    -4.801188     1.044398    -1.565722
 H    -5.258472     2.516011    -0.684190
 H    -3.635846     2.355559    -1.384563
Ir    -2.309324    -0.180733     0.042598
 O     0.532682     1.524860    -0.568254
 C    -1.346980     3.331614     0.171315
 C    -0.237470     1.548346     2.096436
 O     0.772807    -1.355184     0.439186
 C    -0.829171    -3.327279    -0.574291
 C     0.119237    -1.242510    -2.239202
 P    -0.574803    -1.519767    -0.574759
 P    -0.850629     1.591661     0.385743
 C    -3.494825    -1.592458     0.304382
 O    -4.195578    -2.469957     0.558080
 C     1.669071     2.245729    -0.328697
 C     2.635436     1.755130     0.553743
 H     2.453424     0.809825     1.066124
 C     1.892758     3.440137    -1.016790
 H     1.137499     3.799109    -1.718155
 C     3.817836     2.461309     0.755267
 H     4.588657     2.095483     1.435880
 C     3.074551     4.149817    -0.818666
 H     3.273930     5.083638    -1.347304
 C     4.022057     3.652579     0.068363
 F     5.152997     4.329234     0.259471
 H    -2.241298     3.525541     0.779642
 H    -0.538857     4.010973     0.479209
 H    -1.601029     3.509852    -0.882426
 H     0.489850     2.346105     2.307080
 H    -1.113913     1.659749     2.751655
 H     0.205835     0.559391     2.275127
 C     1.939963    -2.043891     0.279831
 C     2.942555    -1.556690    -0.564569
 H     2.770365    -0.633725    -1.119567
 C     2.160748    -3.210659     1.016923
 H     1.376227    -3.568458     1.686098
 C     4.153153    -2.235273    -0.678486
 H     4.950212    -1.869873    -1.328496
 C     3.369022    -3.893246     0.906539
 H     3.562787    -4.804551     1.475157
 C     4.350981    -3.398054     0.056374
 F     5.508610    -4.048764    -0.051319
 H     0.081327    -3.877830    -0.853435
 H    -1.169458    -3.648930     0.420037
 H    -1.626749    -3.552978    -1.297763
 H     0.440241    -0.194393    -2.306984
 H     0.955226    -1.917778    -2.473369
 H    -0.696637    -1.407364    -2.958661
