  98
scf done:    -2754.317687
 C    -1.007843     1.122383     3.713862
 H    -0.513916     1.685513     4.521261
 H    -1.806326     1.793252     3.355512
 C    -1.605693    -0.153287     4.301629
 H    -0.827673    -0.795164     4.743942
 H    -2.342605     0.058658     5.098786
 H    -2.119291    -0.772394     3.544686
Ir     0.366890     0.582147     2.166704
 O    -1.671878    -1.381931     0.421337
 C    -3.077211     0.934038     1.194067
 C    -1.156272     0.900181    -0.987034
 O     2.016424    -0.191880    -0.849083
 C     3.611254    -0.381716     1.357061
 C     1.533440    -2.331477     0.630760
 P     1.850809    -0.504800     0.789078
 P    -1.431440     0.247295     0.705073
 C     1.688730     1.454541     3.135159
 O     2.476208     2.112076     3.661142
 C    -2.789128    -2.026729    -0.043743
 C    -3.492728    -2.838685     0.841751
 H    -3.152322    -2.907465     1.876975
 C    -3.180265    -1.953007    -1.381530
 H    -2.607782    -1.350954    -2.087697
 C    -4.613598    -3.536409     0.398721
 H    -5.163477    -4.166045     1.103545
 C    -4.307625    -2.646357    -1.805213
 H    -4.617608    -2.565030    -2.850424
 C    -5.052330    -3.441940    -0.925516
 C    -6.288161    -4.151537    -1.395282
 H    -7.100526    -3.433555    -1.597059
 H    -6.653866    -4.866495    -0.645071
 H    -6.106206    -4.703337    -2.330220
 H    -2.843263     1.992556     1.394741
 H    -3.310305     0.482581     2.169121
 C    -4.241082     0.817721     0.252540
 C    -5.284746    -0.073674     0.526901
 H    -5.245129    -0.682667     1.432252
 C    -4.330333     1.612216    -0.898379
 H    -3.557095     2.355534    -1.106073
 C    -6.359977    -0.208286    -0.345972
 H    -7.156784    -0.918982    -0.114149
 C    -5.404687     1.476422    -1.775159
 H    -5.452527     2.103603    -2.668832
 C    -6.418824     0.558082    -1.509008
 H    -7.260271     0.451369    -2.197723
 H    -2.001717     0.574060    -1.611427
 H    -0.261137     0.369372    -1.350575
 C    -0.985581     2.392425    -1.126456
 C    -1.132209     2.962055    -2.398090
 H    -1.353171     2.315286    -3.251568
 C    -0.690921     3.237765    -0.051154
 H    -0.512707     2.807017     0.942185
 C    -0.998854     4.334305    -2.588771
 H    -1.116957     4.755174    -3.590348
 C    -0.563384     4.612819    -0.238778
 H    -0.332907     5.251657     0.617231
 C    -0.718798     5.168043    -1.506437
 H    -0.620435     6.246391    -1.652791
 C     2.194292     1.014824    -1.448854
 C     2.197955     1.007565    -2.846064
 H     2.075519     0.051635    -3.359813
 C     2.362525     2.216897    -0.760685
 H     2.323818     2.236520     0.329905
 C     2.354337     2.200537    -3.542369
 H     2.350952     2.182959    -4.635940
 C     2.520762     3.400230    -1.477957
 H     2.635295     4.336772    -0.926157
 C     2.513922     3.421705    -2.875106
 C     2.634718     4.714583    -3.626680
 H     1.680085     5.266854    -3.606911
 H     2.901106     4.547331    -4.680177
 H     3.397888     5.371403    -3.182747
 H     3.570042    -0.624570     2.430372
 H     3.861434     0.689527     1.292280
 C     4.623592    -1.221713     0.646550
 C     5.054878    -0.895020    -0.646133
 H     4.664618    -0.001205    -1.137482
 C     5.149170    -2.367065     1.257795
 H     4.833790    -2.626141     2.272628
 C     5.970498    -1.703915    -1.312590
 H     6.288610    -1.437668    -2.323294
 C     6.070648    -3.175193     0.593246
 H     6.470081    -4.063600     1.088218
 C     6.479673    -2.848594    -0.698564
 H     7.199177    -3.481055    -1.223835
 H     0.519928    -2.474990     1.031886
 H     2.239655    -2.825746     1.315656
 C     1.633519    -2.899897    -0.757203
 C     2.815671    -3.474001    -1.233153
 H     3.688135    -3.538283    -0.581309
 C     0.528630    -2.838540    -1.614929
 H    -0.400943    -2.405468    -1.245791
 C     2.896132    -3.958493    -2.537280
 H     3.832510    -4.399265    -2.888205
 C     0.606009    -3.323177    -2.917349
 H    -0.272073    -3.270313    -3.566323
 C     1.794869    -3.880922    -3.387750
 H     1.859408    -4.261713    -4.410009
