  76
scf done:    -2985.436166
 C    -0.492645    -2.290499    -2.708282
 H    -0.164845    -2.219109    -3.757126
 H     0.016970    -3.180883    -2.317212
 C    -2.002152    -2.505993    -2.672470
 H    -2.548980    -1.658223    -3.115418
 H    -2.302995    -3.412151    -3.230421
 H    -2.387789    -2.628869    -1.645056
Ir    -0.117279    -0.486353    -1.621201
 O    -0.012059    -1.284273     1.780274
 C     0.209151    -3.583482     0.275922
 C     2.324827    -1.458227     0.631885
 O     0.225193     2.129019     0.766301
 C    -0.153965     3.049590    -1.805775
 C    -2.233064     1.753191    -0.041175
 P    -0.501827     1.601019    -0.674455
 P     0.539952    -1.740812     0.240998
 C     0.351670     0.237105    -3.256582
 O     0.824294     0.630421    -4.234576
 C    -1.294498    -0.952219     2.035576
 C    -2.373404    -1.447433     1.295194
 H    -2.204112    -2.145063     0.473867
 C    -1.534306    -0.068903     3.094272
 H    -0.684051     0.295251     3.671804
 C    -3.670182    -1.024864     1.576524
 H    -4.509517    -1.392956     0.984900
 C    -2.825955     0.358089     3.374216
 H    -3.013944     1.068754     4.180463
 C    -3.890150    -0.106380     2.598665
Cl    -5.491931     0.490339     2.889852
 H    -0.711242    -3.681113    -0.325646
 C     1.299910    -4.386253    -0.431965
 H     0.945152    -5.415310    -0.599724
 H     1.573474    -3.967489    -1.409855
 H     2.212706    -4.448612     0.177116
 C    -0.069232    -4.141899     1.667893
 H    -0.921674    -3.651976     2.157138
 H    -0.304265    -5.215370     1.585383
 H     0.800453    -4.041422     2.331634
 H     2.270150    -0.387374     0.871757
 C     2.852078    -2.167629     1.872378
 H     3.830555    -1.735620     2.137176
 H     2.181441    -2.028558     2.731406
 H     3.001334    -3.245574     1.712541
 C     3.235568    -1.594815    -0.581516
 H     2.815073    -1.060166    -1.446964
 H     4.217810    -1.157442    -0.343700
 H     3.399827    -2.642728    -0.868951
 C     1.535121     1.953216     1.044229
 C     1.890489     1.773148     2.385495
 H     1.104086     1.802148     3.140415
 C     2.530716     1.938142     0.060881
 H     2.271674     2.075550    -0.988934
 C     3.211518     1.526810     2.736981
 H     3.487762     1.357333     3.778802
 C     3.856922     1.697520     0.410827
 H     4.630921     1.662014    -0.357081
 C     4.189638     1.469458     1.743025
Cl     5.824663     1.075922     2.167094
 H     0.772146     2.734221    -2.317211
 C    -1.229438     3.181637    -2.880416
 H    -0.875345     3.852401    -3.678480
 H    -1.476479     2.216922    -3.347258
 H    -2.155059     3.612638    -2.471653
 C     0.125134     4.373352    -1.104716
 H     0.936667     4.291930    -0.368768
 H     0.424761     5.124787    -1.852863
 H    -0.761071     4.759616    -0.583898
 H    -2.161683     1.073104     0.819950
 C    -2.643699     3.114919     0.500663
 H    -3.585438     3.006705     1.062862
 H    -1.887297     3.520819     1.186619
 H    -2.822066     3.847123    -0.301185
 C    -3.255450     1.157460    -1.002214
 H    -2.933624     0.168491    -1.364733
 H    -4.217508     1.036285    -0.480160
 H    -3.428899     1.797966    -1.878395
