  96
scf done:    -3895.349060
 C    -3.003031    -0.381028    -2.541549
 H    -3.133597    -1.346829    -3.059932
 H    -3.776042    -0.375909    -1.753844
 C    -3.288423     0.759070    -3.512609
 H    -2.612300     0.743781    -4.382753
 H    -4.321261     0.710829    -3.903135
 H    -3.175706     1.747128    -3.038334
Ir    -1.027643    -0.295758    -1.679663
 O    -3.332077     0.288286     0.797285
 C    -3.113752    -2.298062     0.226666
 C    -1.213580    -0.979823     1.863659
 O     1.395598    -0.353940     0.752081
 C     2.544561    -0.079336    -1.685702
 C     1.065612     2.037473    -0.441750
 P     1.007358     0.247847    -0.776875
 P    -2.133173    -0.782654     0.310544
 C    -0.396535    -0.527302    -3.418423
 O    -0.048748    -0.791734    -4.484045
 C    -3.227419     1.647085     0.749572
 C    -2.502145     2.334855    -0.225404
 H    -1.967341     1.780715    -1.011189
 C    -3.905309     2.360919     1.742414
 H    -4.472017     1.806574     2.492672
 C    -2.441954     3.724290    -0.199010
 H    -1.866109     4.259607    -0.954868
 C    -3.849313     3.750389     1.769944
 H    -4.373482     4.312573     2.544441
 C    -3.109494     4.425922     0.800853
Cl    -3.014784     6.161080     0.847507
 C    -2.869981    -3.238695    -0.782603
 H    -2.118593    -3.009703    -1.544133
 C    -4.080185    -2.573316     1.197183
 H    -4.275303    -1.845161     1.987720
 C    -3.575396    -4.431162    -0.816135
 H    -3.399694    -5.175450    -1.594735
 C    -4.804890    -3.760535     1.163552
 H    -5.560731    -3.946412     1.926703
 C    -4.551398    -4.700560     0.153934
 O    -5.192091    -5.877038     0.040407
 C    -6.188635    -6.202631     0.969700
 H    -7.019956    -5.476361     0.950793
 H    -6.573540    -7.189607     0.684065
 H    -5.788854    -6.259450     1.997387
 C    -1.042537     0.085231     2.757908
 H    -1.600909     1.013915     2.624081
 C    -0.500656    -2.160590     2.079584
 H    -0.634145    -3.007311     1.400648
 C    -0.137229    -0.013046     3.803482
 H     0.020661     0.813828     4.498748
 C     0.412289    -2.269067     3.123494
 H     0.974415    -3.194191     3.249266
 C     0.627726    -1.175778     3.971269
 O     1.542754    -1.150603     4.955894
 C     2.457179    -2.210496     5.052669
 H     3.018516    -2.346022     4.112301
 H     3.161228    -1.945195     5.851189
 H     1.959757    -3.159551     5.319078
 C     2.629585    -0.669777     1.216833
 C     3.308174     0.202216     2.070635
 H     2.856725     1.161992     2.322615
 C     3.199348    -1.904678     0.893399
 H     2.656155    -2.578972     0.230018
 C     4.544387    -0.156554     2.600440
 H     5.076803     0.516920     3.273855
 C     4.437581    -2.264891     1.412690
 H     4.889523    -3.225660     1.161098
 C     5.105177    -1.388377     2.268347
Cl     6.641044    -1.842155     2.934993
 C     3.697297     0.705812    -1.512411
 H     3.653371     1.605823    -0.894734
 C     2.633692    -1.232176    -2.469028
 H     1.749848    -1.862117    -2.597770
 C     4.891799     0.350002    -2.112871
 H     5.794131     0.950923    -1.987188
 C     3.829799    -1.603103    -3.078322
 H     3.860543    -2.505562    -3.688647
 C     4.969609    -0.808935    -2.901954
 O     6.168613    -1.074720    -3.444791
 C     6.315630    -2.216041    -4.244963
 H     5.658078    -2.182109    -5.130983
 H     7.360758    -2.232824    -4.578131
 H     6.105798    -3.141248    -3.680287
 C     1.162138     2.944947    -1.510061
 H     1.299716     2.574162    -2.529651
 C     0.863639     2.539312     0.844284
 H     0.748123     1.842891     1.677112
 C     1.090656     4.309745    -1.286755
 H     1.174108     5.025723    -2.106537
 C     0.783528     3.911516     1.080777
 H     0.613206     4.268553     2.096404
 C     0.901773     4.808140     0.013264
 O     0.840335     6.144441     0.130618
 C     0.619146     6.705153     1.397388
 H     1.423674     6.440663     2.105949
 H     0.612196     7.793525     1.258909
 H    -0.354292     6.394994     1.812389
