 110
scf done:    -2911.456443
 C    -1.872033    -3.036525    -2.344941
 H    -1.476416    -4.016423    -2.654081
 H    -2.708207    -3.275661    -1.667834
 C    -2.373963    -2.294108    -3.580069
 H    -1.567925    -2.145772    -4.315946
 H    -3.186720    -2.839889    -4.095268
 H    -2.763706    -1.287209    -3.345386
Ir    -0.368876    -1.836297    -1.412939
 O    -1.963588     0.944134    -0.477700
 C    -3.779839    -1.183343    -0.447070
 C    -1.738260    -0.911506     1.605969
 O     1.521200    -0.152863     0.817718
 C     2.934204    -0.828704    -1.547648
 C     1.040957     1.413429    -1.407501
 P     1.282065    -0.341695    -0.840417
 P    -2.007249    -0.705015    -0.212335
 C     0.833062    -3.222775    -1.672192
 O     1.541504    -4.135846    -1.645274
 C    -2.695566     2.019390    -0.057817
 C    -2.992866     2.982323    -1.022515
 H    -2.670897     2.808763    -2.050988
 C    -3.061568     2.237337     1.269304
 H    -2.803222     1.514374     2.040852
 C    -3.688328     4.132331    -0.666754
 H    -3.910844     4.879212    -1.434236
 C    -3.776806     3.383638     1.603899
 H    -4.080105     3.528668     2.644197
 C    -4.113216     4.348332     0.649259
 C    -4.934396     5.549572     1.014874
 H    -4.710962     6.407027     0.363533
 H    -4.761113     5.857507     2.056285
 H    -6.012028     5.333369     0.913775
 H    -3.913525    -1.285259    -1.533206
 H    -3.827560    -2.202514    -0.030476
 C    -4.836636    -0.293392     0.136054
 C    -5.250679    -0.411515     1.468889
 H    -4.833341    -1.195553     2.102970
 C    -5.432104     0.690906    -0.658332
 H    -5.126423     0.781255    -1.704890
 C    -6.206628     0.455046     1.989580
 H    -6.522467     0.351912     3.030542
 C    -6.394229     1.571292    -0.153751
 C    -6.995594     2.624292    -1.036600
 H    -6.228744     3.351793    -1.346443
 H    -7.418719     2.184869    -1.953170
 H    -7.796562     3.173333    -0.521984
 C    -6.768376     1.445494     1.187954
 H    -7.518141     2.124134     1.603370
 H    -0.836589    -0.319528     1.827734
 H    -2.592832    -0.487434     2.151416
 C    -1.531191    -2.359355     1.955604
 C    -2.597966    -3.179091     2.340187
 H    -3.600167    -2.760117     2.453757
 C    -0.257398    -2.924050     1.845601
 H     0.570576    -2.275394     1.557223
 C    -2.388831    -4.532678     2.591788
 H    -3.227224    -5.165022     2.893487
 C    -0.029082    -4.281222     2.092344
 C     1.349310    -4.854887     1.938117
 H     2.079350    -4.307133     2.554658
 H     1.382497    -5.912365     2.235272
 H     1.683614    -4.789927     0.890055
 C    -1.115115    -5.081011     2.462287
 H    -0.958391    -6.145580     2.656165
 C     2.686280    -0.214529     1.525099
 C     3.199867     0.941406     2.115619
 H     2.676507     1.887331     1.979914
 C     3.336373    -1.435195     1.713425
 H     2.916717    -2.344480     1.278905
 C     4.375074     0.870790     2.854810
 H     4.767401     1.785405     3.309194
 C     4.519589    -1.486314     2.449676
 H     5.024297    -2.447575     2.579221
 C     5.068322    -0.336175     3.025257
 C     6.361207    -0.380378     3.786575
 H     7.177006     0.086247     3.209407
 H     6.663223    -1.413287     4.009497
 H     6.286578     0.165407     4.739500
 H     3.282647    -1.679837    -0.943672
 H     2.624984    -1.256024    -2.514389
 C     4.021899     0.179725    -1.765277
 C     4.109334     0.852264    -2.992705
 H     3.394943     0.622227    -3.788251
 C     4.975644     0.461040    -0.783145
 H     4.938523    -0.072612     0.167602
 C     5.104207     1.801580    -3.208851
 H     5.160669     2.321497    -4.168199
 C     5.980207     1.413583    -0.982149
 C     6.982228     1.682451     0.102586
 H     6.481029     1.819646     1.072943
 H     7.676465     0.833835     0.217228
 H     7.581541     2.578626    -0.111106
 C     6.028861     2.089079    -2.206022
 H     6.804696     2.840054    -2.378222
 H     1.552586     1.490495    -2.378604
 H    -0.040060     1.491768    -1.585230
 C     1.492073     2.493416    -0.467366
 C     0.656355     2.894748     0.582460
 H    -0.318125     2.423726     0.704897
 C     2.734348     3.118300    -0.609550
 H     3.391883     2.821811    -1.428536
 C     1.060862     3.895180     1.460592
 H     0.393052     4.206651     2.267543
 C     3.163169     4.115292     0.273950
 C     4.524546     4.729707     0.122724
 H     5.278385     4.147899     0.678956
 H     4.844111     4.743099    -0.928973
 H     4.550452     5.758845     0.509676
 C     2.308465     4.500003     1.312686
 H     2.620885     5.284731     2.007490
