  92
scf done:    -3594.694616
 C    -1.466106    -2.911745     2.300927
 H    -1.327358    -3.044845     3.386552
 H    -2.486779    -2.499514     2.205793
 C    -1.392630    -4.264497     1.600276
 H    -0.412049    -4.744702     1.748296
 H    -2.160639    -4.968506     1.972014
 H    -1.542707    -4.175291     0.511781
Ir     0.040707    -1.581084     1.521072
 O    -1.158416     0.397069    -0.891657
 C    -2.637845    -1.854883    -0.770844
 C    -2.913315     0.212060     1.231344
 O     3.074976    -0.360596     1.422777
 C     2.151722    -0.798337    -1.136494
 C     1.377009     1.515793     0.451380
 P     1.636953    -0.293173     0.538561
 P    -1.684094    -0.705170     0.267077
 C     1.196312    -2.227806     2.851677
 O     1.863128    -2.587800     3.713328
 C    -1.918763     1.417920    -1.382752
 C    -2.027139     2.605527    -0.655922
 H    -1.520917     2.686744     0.307083
 C    -2.558772     1.288311    -2.615187
 H    -2.467515     0.353707    -3.170274
 C    -2.777002     3.662215    -1.157837
 H    -2.872208     4.592494    -0.595643
 C    -3.310341     2.345987    -3.122526
 H    -3.815752     2.258462    -4.085539
 C    -3.418093     3.526419    -2.389374
Cl    -4.358237     4.842549    -3.015328
 C    -2.096347    -2.232887    -2.007829
 H    -1.173270    -1.764925    -2.359162
 C    -3.808753    -2.476937    -0.328262
 H    -4.241786    -2.207406     0.637169
 C    -2.722434    -3.200471    -2.783531
 H    -2.285559    -3.482303    -3.745871
 C    -4.426227    -3.449422    -1.111749
 H    -5.339213    -3.928391    -0.748063
 C    -3.899382    -3.827441    -2.350392
 C    -4.576313    -4.859056    -3.203180
 H    -5.312659    -5.438082    -2.628758
 H    -5.108300    -4.385693    -4.045068
 H    -3.848197    -5.562022    -3.635018
 C    -4.145389     0.617969     0.700520
 H    -4.431498     0.324733    -0.312177
 C    -2.560951     0.612763     2.524845
 H    -1.596813     0.282307     2.927219
 C    -5.001357     1.411700     1.454069
 H    -5.955042     1.730250     1.024714
 C    -3.425120     1.407677     3.271061
 H    -3.138065     1.713931     4.280578
 C    -4.657165     1.820695     2.750035
 C    -5.600491     2.655051     3.564260
 H    -5.072036     3.211679     4.350981
 H    -6.146231     3.374565     2.936492
 H    -6.353023     2.019078     4.059783
 C     4.270666     0.106095     0.967459
 C     4.599718     1.461255     1.056022
 H     3.886668     2.160279     1.493969
 C     5.184018    -0.798326     0.420642
 H     4.907478    -1.852373     0.362695
 C     5.828349     1.910952     0.579522
 H     6.094669     2.967331     0.641004
 C     6.414489    -0.354400    -0.050806
 H     7.131926    -1.053875    -0.482607
 C     6.727364     1.002637     0.022411
Cl     8.254530     1.565113    -0.577738
 C     1.597404    -1.988209    -1.622084
 H     0.890314    -2.531960    -0.984690
 C     3.092296    -0.124084    -1.931347
 H     3.565734     0.792076    -1.573493
 C     1.947178    -2.477355    -2.877928
 H     1.499573    -3.408502    -3.236475
 C     3.442034    -0.622402    -3.180966
 H     4.181235    -0.085521    -3.782037
 C     2.871607    -1.801474    -3.681014
 C     3.243225    -2.311633    -5.041724
 H     2.813762    -1.673075    -5.831168
 H     4.334461    -2.310166    -5.185136
 H     2.877335    -3.334993    -5.203996
 C     1.142505     2.158808     1.673785
 H     1.146136     1.571416     2.596601
 C     1.336317     2.274939    -0.721721
 H     1.462131     1.791528    -1.691195
 C     0.908279     3.530274     1.720581
 H     0.730206     4.013586     2.685211
 C     1.103596     3.645872    -0.667835
 H     1.068358     4.218540    -1.598685
 C     0.889516     4.300291     0.550619
 C     0.605809     5.772743     0.586865
 H     1.370981     6.341727     0.036655
 H    -0.363303     5.996799     0.111219
 H     0.571279     6.154364     1.616703
