  80
scf done:    -5275.432559
 C    -1.449590    -2.221889     2.991556
 H    -1.388510    -2.046441     4.078046
 H    -2.472101    -1.901029     2.722999
 C    -1.283221    -3.708931     2.696854
 H    -0.303780    -4.082343     3.035818
 H    -2.056468    -4.320510     3.197595
 H    -1.351942    -3.929074     1.618747
Ir     0.075046    -1.089572     1.971947
 O    -1.013948     0.126008    -0.944473
 C    -2.423540    -2.084301    -0.322398
 C    -2.904718     0.412618     1.044133
 O     3.094800     0.152138     1.726308
 C     2.343581    -0.997102    -0.663422
 C     1.436780     1.635697     0.175837
 P     1.719205    -0.069653     0.779500
 P    -1.576976    -0.658191     0.429382
 C     1.137639    -1.284023     3.511482
 O     1.738861    -1.352181     4.485039
 C    -1.758423     0.968952    -1.722277
 C    -1.931467     2.295608    -1.324116
 H    -1.501612     2.627105    -0.377998
 C    -2.303568     0.519091    -2.923998
 H    -2.162963    -0.520523    -3.223156
 C    -2.641195     3.178950    -2.128111
 H    -2.765599     4.220956    -1.829943
 C    -3.021172     1.399290    -3.731090
 H    -3.452210     1.062509    -4.675135
 C    -3.186700     2.724192    -3.329180
Cl    -4.076132     3.818649    -4.334501
 C    -1.797810    -2.728608    -1.398522
 H    -0.877208    -2.314399    -1.816916
 C    -3.595637    -2.631800     0.210830
 H    -4.094532    -2.149622     1.053863
 C    -2.335183    -3.889761    -1.941536
 H    -1.853361    -4.391157    -2.782468
 C    -4.139443    -3.796839    -0.322635
 H    -5.053170    -4.226427     0.090536
 C    -3.506380    -4.419232    -1.397237
Cl    -4.179026    -5.863872    -2.065553
 C    -2.666787     1.137493     2.217860
 H    -1.729469     0.961626     2.757742
 C    -4.101079     0.609831     0.341007
 H    -4.297449     0.057643    -0.580811
 C    -3.604795     2.051237     2.685885
 H    -3.429959     2.617196     3.602005
 C    -5.044559     1.521192     0.799749
 H    -5.975024     1.687168     0.255155
 C    -4.787011     2.239126     1.969157
Cl    -5.954755     3.377882     2.538210
 C     4.315171     0.496836     1.221990
 C     4.632464     1.829260     0.948596
 H     3.896345     2.609806     1.142722
 C     5.258498    -0.507086     0.993755
 H     4.991450    -1.541122     1.218373
 C     5.882488     2.152520     0.427074
 H     6.141185     3.189601     0.207720
 C     6.509920    -0.187986     0.478290
 H     7.251895    -0.966241     0.293453
 C     6.813115     1.142091     0.187482
Cl     8.365223     1.544239    -0.469305
 C     1.839281    -2.293897    -0.826464
 H     1.106236    -2.663628    -0.099654
 C     3.314978    -0.531441    -1.562697
 H     3.747968     0.464068    -1.447930
 C     2.263352    -3.103771    -1.875097
 H     1.867541    -4.112748    -2.001856
 C     3.751726    -1.332963    -2.612306
 H     4.508500    -0.973959    -3.311356
 C     3.217162    -2.612911    -2.766148
Cl     3.752772    -3.606650    -4.075323
 C     1.126281     2.584962     1.160878
 H     1.113678     2.282631     2.211989
 C     1.419801     2.026441    -1.165407
 H     1.606817     1.296483    -1.953719
 C     0.825797     3.898842     0.818834
 H     0.578286     4.636648     1.583722
 C     1.122258     3.339371    -1.522415
 H     1.090882     3.639084    -2.570806
 C     0.824370     4.267548    -0.528179
Cl     0.390775     5.882812    -0.970877
