 110
scf done:    -2911.467198
 C     1.565239     2.611492    -2.609329
 H     1.100279     3.514124    -3.038380
 H     2.179593     2.993195    -1.777503
 C     2.454098     1.976399    -3.673888
 H     1.868728     1.649243    -4.547286
 H     3.230112     2.672950    -4.042120
 H     2.977720     1.077403    -3.307319
Ir     0.058561     1.261687    -1.873891
 O     1.915793    -1.219763    -0.753494
 C     3.262415     1.199707    -0.215583
 C     1.048118     0.225838     1.400342
 O    -2.134415    -0.045350     0.397534
 C    -3.153778    -0.079102    -2.160132
 C    -1.251643    -2.025697    -1.158905
 P    -1.576191    -0.190360    -1.180311
 P     1.624051     0.365633    -0.337336
 C    -1.055846     2.123636    -3.081585
 O    -1.733201     2.689746    -3.820745
 C     2.970868    -2.053434    -0.476551
 C     3.243652    -2.498337     0.815910
 H     2.645382    -2.142780     1.653957
 C     3.709843    -2.513341    -1.577564
 C     3.377568    -2.033568    -2.955868
 H     2.312077    -2.184378    -3.185554
 H     3.558716    -0.951804    -3.060448
 H     3.980288    -2.554056    -3.711980
 C     4.293930    -3.385557     1.034020
 H     4.515981    -3.715938     2.050755
 C     4.749599    -3.413669    -1.331035
 H     5.335137    -3.782521    -2.177709
 C     5.049607    -3.845926    -0.040568
 H     5.871729    -4.545874     0.123456
 H     3.614030     1.317636    -1.250192
 H     2.986333     2.208842     0.134264
 C     4.328211     0.602313     0.654346
 C     4.278667     0.715437     2.047965
 H     3.471853     1.279502     2.521737
 C     5.406521    -0.072476     0.072014
 H     5.458650    -0.148962    -1.017681
 C     5.265767     0.119983     2.830396
 H     5.218059     0.206781     3.918851
 C     6.407076    -0.668978     0.841242
 C     7.563706    -1.369624     0.191083
 H     7.854317    -2.268409     0.754617
 H     7.319448    -1.677164    -0.835074
 H     8.447453    -0.711484     0.144596
 C     6.314397    -0.575261     2.235388
 H     7.081330    -1.043313     2.858832
 H     0.119186    -0.366275     1.339868
 H     1.778746    -0.373656     1.961265
 C     0.809741     1.529671     2.115642
 C     0.966491     1.581326     3.504955
 H     1.268840     0.682172     4.049219
 C     0.418648     2.690850     1.440815
 H     0.256643     2.653587     0.354042
 C     0.730767     2.768499     4.194679
 H     0.847702     2.797350     5.280858
 C     0.195140     3.893639     2.115574
 C    -0.182077     5.132482     1.358263
 H    -0.476733     4.893197     0.327321
 H    -1.019012     5.657289     1.842490
 H     0.664524     5.837350     1.311289
 C     0.351612     3.916834     3.506144
 H     0.172580     4.846250     4.053931
 C    -2.493159     1.102910     1.034520
 C    -2.752056     2.302758     0.371434
 H    -2.614702     2.371293    -0.707429
 C    -2.623974     1.005754     2.432221
 C    -2.365514    -0.298079     3.118760
 H    -2.516638    -0.208917     4.202907
 H    -3.023717    -1.088928     2.728801
 H    -1.339418    -0.655023     2.941259
 C    -3.145190     3.426761     1.096383
 H    -3.343623     4.361688     0.567650
 C    -3.004596     2.151779     3.130991
 H    -3.094432     2.091981     4.218902
 C    -3.267781     3.356845     2.479321
 H    -3.565495     4.236310     3.054345
 H    -3.432070     0.984942    -2.178485
 H    -2.851991    -0.338326    -3.187754
 C    -4.289036    -0.927506    -1.684240
 C    -4.619517    -2.123269    -2.332021
 H    -4.076507    -2.420526    -3.233438
 C    -5.013989    -0.559082    -0.543759
 H    -4.769528     0.376787    -0.035003
 C    -5.636649    -2.935199    -1.832944
 H    -5.885050    -3.869379    -2.342162
 C    -6.027963    -1.366213    -0.023662
 C    -6.778808    -0.948263     1.207106
 H    -6.174341    -0.277514     1.834585
 H    -7.702925    -0.408121     0.941841
 H    -7.071972    -1.818136     1.813156
 C    -6.329496    -2.565256    -0.683391
 H    -7.117119    -3.214035    -0.290152
 H    -1.908518    -2.456679    -1.930178
 H    -0.214157    -2.128819    -1.504363
 C    -1.440879    -2.746376     0.146570
 C    -0.330186    -3.122068     0.908069
 H     0.671136    -2.913357     0.532790
 C    -2.716327    -3.063068     0.623963
 H    -3.591515    -2.782562     0.037111
 C    -0.498687    -3.781127     2.123986
 H     0.379233    -4.079600     2.703047
 C    -2.903852    -3.721199     1.841966
 C    -4.291313    -3.998826     2.344741
 H    -4.693927    -3.123776     2.883637
 H    -4.981848    -4.209429     1.515419
 H    -4.309179    -4.849730     3.040935
 C    -1.776173    -4.074907     2.592752
 H    -1.903033    -4.593510     3.547199
