  64
scf done:    -2107.752988
 C     3.442716    -1.998817     0.392423
 H     4.229032    -1.784693     1.134549
 H     2.892744    -2.855190     0.826675
 C     4.091873    -2.427225    -0.920755
 H     4.724847    -1.627476    -1.336083
 H     4.730941    -3.322070    -0.801111
 H     3.348199    -2.665190    -1.700738
Ir     2.206520    -0.256302     0.081166
 O    -1.062451    -1.085332    -0.203107
 C     0.489157    -3.324983    -0.651854
 C     0.151877    -2.180630     2.009944
 O    -0.223652     1.839637     0.806752
 C     1.706972     3.179521    -0.576740
 C    -0.107196     1.417771    -1.966330
 P     0.890643     1.540734    -0.421545
 P     0.430561    -1.728174     0.260343
 C     3.700827     0.765099     0.519014
 O     4.595461     1.379855     0.904788
 C    -2.239565    -1.772474    -0.261978
 C    -3.042995    -1.907963     0.873856
 H    -2.710711    -1.478510     1.820077
 C    -2.680067    -2.273673    -1.489795
 H    -2.057246    -2.132586    -2.374949
 C    -4.262898    -2.574451     0.790571
 H    -4.906087    -2.693450     1.664269
 C    -3.898385    -2.940304    -1.578208
 H    -4.260383    -3.342836    -2.525901
 C    -4.673088    -3.089501    -0.433343
 F    -5.838137    -3.728311    -0.514295
 H     1.562051    -3.557154    -0.733460
 C    -0.275421    -4.518123    -0.095707
 H    -1.350601    -4.317433     0.014463
 H     0.115030    -4.824135     0.885757
 H     0.163733    -3.076732    -1.675583
 H    -0.168009    -5.380449    -0.771328
 H     1.031373    -2.783183     2.293057
 C     0.015972    -0.961284     2.909806
 H    -0.806118    -0.306221     2.585300
 H     0.932606    -0.354485     2.868525
 H    -0.724693    -2.845304     2.072321
 H    -0.167899    -1.264355     3.951400
 C    -1.368346     2.567860     0.692245
 C    -2.561664     1.926245     0.348336
 H    -2.541667     0.853747     0.156549
 C    -1.370283     3.937523     0.969260
 H    -0.439715     4.421261     1.270708
 C    -3.744223     2.652838     0.249069
 H    -4.685615     2.171585    -0.022314
 C    -2.551276     4.669628     0.870767
 H    -2.576822     5.740428     1.080965
 C    -3.723635     4.019366     0.504445
 F    -4.854475     4.718925     0.407140
 H     2.187667     3.361582     0.398161
 C     2.731364     3.229247    -1.701393
 H     2.261897     3.108206    -2.689500
 H     3.484099     2.434399    -1.595014
 H     0.933961     3.953627    -0.708404
 H     3.260786     4.193800    -1.702040
 H    -0.855632     0.639760    -1.752506
 C    -0.738660     2.666000    -2.566753
 H     0.014615     3.418143    -2.843442
 H    -1.453899     3.143203    -1.883248
 H     0.598532     0.955210    -2.677955
 H    -1.286848     2.404523    -3.485274
