  80
scf done:    -2565.705984
 C    -0.613845    -2.511337    -2.327772
 H    -1.316481    -2.473295    -3.176381
 H     0.358370    -2.217669    -2.757220
 C    -0.524427    -3.934989    -1.789108
 H    -1.495935    -4.293960    -1.413590
 H    -0.193023    -4.648443    -2.566740
 H     0.190937    -4.005761    -0.955026
Ir    -1.247608    -1.148986    -0.780966
 O     1.387126     0.152584     0.774237
 O     1.923666    -2.083962    -0.366838
 O     1.803896    -0.043247    -1.749062
 O    -1.260553     1.554629     1.352717
 O    -3.528566     0.515550     0.849022
 O    -1.960168    -0.522656     2.454234
 P    -1.971968     0.087782     0.950441
 P     1.004795    -0.779075    -0.545343
 C    -3.008701    -1.467723    -1.367812
 O    -4.060308    -1.645395    -1.784447
 C     2.666985     0.398633     1.196698
 C     3.251588    -0.445706     2.140742
 H     2.685374    -1.303945     2.504179
 C     3.360648     1.512795     0.724204
 H     2.876184     2.174720     0.006623
 C     4.538885    -0.187524     2.603416
 H     5.019733    -0.832486     3.340994
 C     4.648469     1.775608     1.183489
 H     5.213246     2.640228     0.830380
 C     5.224007     0.918868     2.114747
 F     6.456322     1.167553     2.553865
 C     3.264596    -2.300571    -0.864419
 H     3.808551    -1.343072    -0.814989
 C     3.207320    -2.781981    -2.298795
 H     2.749068    -2.022989    -2.945370
 H     2.618707    -3.708969    -2.368241
 H     4.224207    -2.984421    -2.667083
 C     3.905668    -3.305528     0.066084
 H     3.940591    -2.923954     1.095045
 H     3.336660    -4.247352     0.058992
 H     4.935119    -3.516857    -0.258128
 C     1.316131     1.168698    -2.366900
 H     0.867374     1.790990    -1.576330
 C     0.265939     0.844476    -3.406596
 H    -0.597636     0.344005    -2.937396
 H     0.680639     0.180243    -4.180127
 H    -0.082236     1.770628    -3.886417
 C     2.518822     1.881747    -2.942989
 H     3.291714     2.039813    -2.178075
 H     2.962421     1.294174    -3.761258
 H     2.214581     2.861933    -3.338841
 C    -0.892038     2.474055     0.424638
 C     0.235047     3.253559     0.700538
 H     0.772094     3.082287     1.634551
 C    -1.601244     2.673423    -0.765460
 H    -2.488131     2.073674    -0.975145
 C     0.664954     4.213827    -0.210174
 H     1.544792     4.829786    -0.014390
 C    -1.170143     3.632806    -1.680327
 H    -1.704803     3.797547    -2.617410
 C    -0.037846     4.384624    -1.398416
 F     0.392006     5.283350    -2.288009
 C    -4.217534     1.209576     1.908016
 H    -3.468858     1.559868     2.637393
 C    -5.158680     0.232431     2.579718
 H    -4.590377    -0.607790     3.001289
 H    -5.882893    -0.162340     1.850826
 H    -5.713264     0.725746     3.392219
 C    -4.914439     2.401958     1.289604
 H    -4.185119     3.084725     0.830214
 H    -5.620547     2.071141     0.512582
 H    -5.474595     2.959508     2.054970
 C    -0.865887    -1.314321     2.935993
 H    -0.260271    -1.627317     2.065797
 C    -1.451802    -2.545123     3.591380
 H    -2.047598    -3.116352     2.865279
 H    -2.103284    -2.259847     4.431909
 H    -0.652456    -3.195947     3.975859
 C    -0.024638    -0.463079     3.863651
 H     0.373069     0.407788     3.325282
 H    -0.634097    -0.105230     4.707583
 H     0.818915    -1.042869     4.267550
