  58
scf done:    -1830.820796
 C    -2.009134     3.144826    -0.371512
 H    -1.770055     4.203883    -0.557704
 H    -2.579998     2.829757    -1.261523
 C    -2.886793     3.048965     0.873803
 H    -2.373193     3.448516     1.762477
 H    -3.832216     3.612839     0.764582
 H    -3.162225     2.008623     1.120889
Ir    -0.244150     1.967340    -0.075402
 O    -1.297680    -1.222982     0.093290
 C    -3.124299     0.189296    -1.381705
 C    -0.590559    -0.465999    -2.465490
 O     2.018869    -0.497690    -0.484481
 C     3.053031     1.533600     1.068935
 C     1.196260    -0.308632     2.127044
 P     1.505908     0.673551     0.620023
 P    -1.360577     0.119533    -0.925135
 C     0.728798     3.552156    -0.022189
 O     1.355495     4.515065    -0.107933
 C    -2.139703    -2.300655     0.040340
 C    -1.972375    -3.295198    -0.923168
 H    -1.162592    -3.204532    -1.648571
 C    -3.136311    -2.398852     1.025505
 C    -3.259278    -1.338788     2.076737
 H    -4.079260    -1.564431     2.771417
 H    -2.327232    -1.247623     2.655914
 H    -3.444130    -0.345427     1.639525
 C    -2.823287    -4.399093    -0.934974
 H    -2.691335    -5.176981    -1.690494
 C    -3.973607    -3.517203     0.991775
 H    -4.755977    -3.610382     1.749898
 C    -3.829676    -4.508064     0.021221
 H    -4.500183    -5.370160     0.018838
 H    -3.226107     0.886719    -2.224887
 H    -3.487783    -0.802762    -1.685979
 H    -3.728906     0.568619    -0.547795
 H    -1.146479    -1.300843    -2.915887
 H    -0.568486     0.382959    -3.164555
 H     0.444952    -0.753679    -2.237308
 C     3.082397    -1.342342    -0.304771
 C     4.365626    -0.894781    -0.635216
 H     4.481843     0.121775    -1.014204
 C     2.870031    -2.661803     0.129025
 C     1.495468    -3.186640     0.417772
 H     1.363123    -3.398365     1.491000
 H     0.721271    -2.469910     0.123394
 H     1.319732    -4.131802    -0.118236
 C     5.462012    -1.738941    -0.500620
 H     6.460267    -1.379386    -0.760608
 C     3.992772    -3.490819     0.253444
 H     3.843764    -4.521516     0.588166
 C     5.275862    -3.043638    -0.044609
 H     6.128897    -3.717120     0.064157
 H     3.424823     2.105945     0.207647
 H     2.801085     2.247500     1.867407
 H     3.832246     0.845514     1.426741
 H     2.049877    -0.955803     2.379723
 H     1.015473     0.397351     2.951138
 H     0.291499    -0.910246     1.972400
