  98
scf done:    -2754.303868
 C    -0.826727    -1.183350    -3.172408
 H    -0.232302    -1.683512    -3.952880
 H    -1.673194    -1.854131    -2.964423
 C    -1.332815     0.154680    -3.697016
 H    -0.504600     0.834066    -3.957115
 H    -1.947590     0.029967    -4.607662
 H    -1.961500     0.681413    -2.959636
Ir     0.359421    -0.717315    -1.468670
 O    -1.988931     1.080830     0.044564
 C    -3.131726    -1.197026    -0.959676
 C    -1.551527    -1.412318     1.403088
 O     2.292211     0.120814     1.405538
 C     3.319216     1.109820    -0.922863
 C     1.010699     2.218193     0.238406
 P     1.743899     0.573568    -0.123953
 P    -1.609127    -0.517121    -0.205736
 C     1.686626    -1.770298    -2.208950
 O     2.432873    -2.572308    -2.575276
 C    -2.787835     1.854549     0.831789
 C    -2.952363     1.627291     2.196698
 H    -2.465664     0.771265     2.661338
 C    -3.347433     2.987512     0.211954
 C    -3.078390     3.270392    -1.233801
 H    -2.002201     3.196478    -1.445870
 H    -3.579612     2.551480    -1.902043
 H    -3.424794     4.276713    -1.505106
 C    -3.716036     2.507740     2.960377
 H    -3.843257     2.319262     4.029046
 C    -4.105083     3.852897     1.004075
 H    -4.542124     4.739259     0.535979
 C    -4.300740     3.621667     2.365086
 H    -4.898156     4.316973     2.958675
 C    -4.162163    -0.336728    -1.347769
 H    -4.066230     0.732689    -1.164290
 C    -3.244488    -2.585452    -1.194390
 C    -2.170774    -3.563181    -0.814844
 H    -2.206043    -3.801631     0.260063
 H    -1.165272    -3.160034    -1.021889
 H    -2.288406    -4.501745    -1.373730
 C    -5.320249    -0.826292    -1.943519
 H    -6.117570    -0.137647    -2.231580
 C    -4.416106    -3.053264    -1.800936
 H    -4.511597    -4.125429    -1.993025
 C    -5.448035    -2.193991    -2.168355
 H    -6.349107    -2.594790    -2.638689
 C    -0.283342    -1.901044     1.747191
 H     0.545780    -1.698550     1.064607
 C    -2.666502    -1.732757     2.217510
 C    -4.095396    -1.387090     1.905582
 H    -4.536740    -2.143999     1.237370
 H    -4.215152    -0.419222     1.409604
 H    -4.689523    -1.368346     2.830207
 C    -0.075241    -2.662868     2.891414
 H     0.926798    -3.032584     3.119115
 C    -2.425597    -2.478070     3.379602
 H    -3.274145    -2.716464     4.026707
 C    -1.156742    -2.938834     3.721589
 H    -1.020412    -3.526658     4.632787
 C     3.013486    -1.010710     1.650174
 C     3.569635    -1.791273     0.635350
 H     3.461959    -1.496482    -0.406278
 C     3.193562    -1.361760     3.002935
 C     2.620103    -0.516167     4.096615
 H     2.972920     0.524380     4.024256
 H     1.521176    -0.486270     4.042337
 H     2.905679    -0.907998     5.082276
 C     4.277255    -2.950277     0.949316
 H     4.692216    -3.553537     0.139030
 C     3.916705    -2.522600     3.285894
 H     4.061009    -2.800956     4.333675
 C     4.451080    -3.324033     2.276962
 H     5.006481    -4.229220     2.531216
 C     3.459744     0.868642    -2.294436
 H     2.649298     0.359169    -2.821247
 C     4.336804     1.806140    -0.228344
 C     4.267549     2.163309     1.228344
 H     4.468150     1.288040     1.864852
 H     3.277299     2.547775     1.508491
 H     5.017080     2.931397     1.463507
 C     4.593038     1.273116    -2.993645
 H     4.674537     1.072332    -4.064034
 C     5.472437     2.191086    -0.951172
 H     6.268243     2.723553    -0.423236
 C     5.611634     1.929288    -2.311423
 H     6.514315     2.249534    -2.837431
 C     1.020319     3.083598    -0.866723
 H     1.511095     2.771012    -1.791312
 C     0.373708     2.618894     1.430174
 C     0.315791     1.775748     2.666774
 H     1.301291     1.723294     3.147642
 H     0.021583     0.740105     2.450362
 H    -0.397762     2.201259     3.383793
 C     0.424181     4.338071    -0.809465
 H     0.449030     4.992858    -1.683332
 C    -0.221687     3.886822     1.461703
 H    -0.732045     4.196759     2.377278
 C    -0.200625     4.743072     0.366713
 H    -0.682830     5.721199     0.431448
