 102
scf done:    -3055.126553
 C     2.521628    -2.742467    -1.857119
 H     2.305907    -3.351312    -2.749093
 H     3.382857    -2.114034    -2.129104
 C     2.893293    -3.664295    -0.700904
 H     2.045321    -4.287824    -0.374617
 H     3.713126    -4.351567    -0.978337
 H     3.243610    -3.096452     0.175420
Ir     0.834765    -1.521060    -1.329320
 O     2.109317     0.613350     1.104975
 O     3.864815    -0.560258    -0.315525
 O     2.584117     1.342470    -1.213785
 O    -1.431183     1.017330    -1.018232
 O    -2.410701    -1.338512    -1.212747
 O    -1.322979    -0.532033     0.977646
 P    -1.080527    -0.547087    -0.640350
 P     2.327358    -0.039410    -0.390513
 C    -0.078718    -2.582981    -2.574557
 O    -0.585426    -3.192856    -3.401926
 C     1.445749    -0.003315     2.139405
 C     1.387840    -1.388002     2.277486
 H     1.895949    -2.040700     1.564491
 C     0.825256     0.821458     3.073775
 H     0.909733     1.903755     2.964717
 C     0.650322    -1.936914     3.324139
 H     0.592351    -3.024695     3.414476
 C     0.096306     0.255049     4.112310
 H    -0.407958     0.910052     4.827744
 C    -0.024926    -1.133576     4.246693
 C    -0.897499    -1.733404     5.308139
 H    -0.579954    -2.754286     5.564648
 H    -1.940722    -1.790056     4.954257
 H    -0.892256    -1.130013     6.227731
 C     4.949723     0.197175     0.091133
 C     5.481499     1.154989    -0.769135
 H     5.008444     1.315183    -1.737477
 C     5.521664    -0.076516     1.340816
 C     4.954962    -1.131095     2.239834
 H     4.014730    -0.800002     2.707565
 H     4.729284    -2.051464     1.681239
 H     5.660252    -1.377096     3.045003
 C     6.598959     1.886310    -0.375803
 H     7.015329     2.640198    -1.047608
 C     6.647651     0.670144     1.704414
 H     7.114865     0.470864     2.672618
 C     7.181537     1.646416     0.866537
 H     8.060680     2.213038     1.181420
 C     1.848137     2.507702    -1.149027
 C     2.096624     3.407905    -0.115970
 H     2.838892     3.148017     0.639840
 C     0.932433     2.775444    -2.173824
 C     0.751683     1.811171    -3.302628
 H     1.644538     1.796815    -3.948657
 H     0.613672     0.780143    -2.934074
 H    -0.114273     2.086801    -3.918772
 C     1.395327     4.610536    -0.076560
 H     1.582366     5.322365     0.730629
 C     0.234391     3.985198    -2.098042
 H    -0.501368     4.213328    -2.873434
 C     0.455135     4.893646    -1.065020
 H    -0.111994     5.826336    -1.032537
 C    -2.018956     1.957789    -0.200024
 C    -1.258739     2.559395     0.797579
 H    -0.214371     2.273592     0.912335
 C    -3.347644     2.324805    -0.390950
 H    -3.934341     1.853451    -1.179546
 C    -1.839834     3.514194     1.624101
 H    -1.234332     3.978265     2.407782
 C    -3.914529     3.284730     0.444475
 H    -4.962136     3.560487     0.296246
 C    -3.179333     3.892788     1.468716
 C    -3.793540     4.944027     2.347164
 H    -4.881111     4.809388     2.437555
 H    -3.622235     5.953230     1.936217
 H    -3.361764     4.927791     3.358623
 C    -3.642704    -0.810954    -1.537107
 C    -4.687671    -0.893317    -0.620799
 H    -4.511095    -1.353916     0.350938
 C    -3.821501    -0.255257    -2.813951
 C    -2.698226    -0.221740    -3.802274
 H    -1.858578     0.382711    -3.428058
 H    -2.309939    -1.233006    -3.994652
 H    -3.030553     0.207433    -4.756953
 C    -5.937391    -0.376209    -0.952592
 H    -6.752918    -0.433231    -0.228433
 C    -5.087026     0.258093    -3.117327
 H    -5.247444     0.702723    -4.103131
 C    -6.136057     0.210809    -2.199990
 H    -7.111675     0.623245    -2.466857
 C    -2.353920    -0.994479     1.752162
 C    -3.119368    -0.059802     2.447193
 H    -2.894887     0.999841     2.319810
 C    -2.575162    -2.374627     1.875615
 C    -1.750207    -3.374213     1.125085
 H    -2.164161    -3.545899     0.118790
 H    -0.717309    -3.023446     0.984760
 H    -1.727635    -4.338071     1.652305
 C    -4.153542    -0.492680     3.270771
 H    -4.758549     0.240284     3.809122
 C    -3.625978    -2.777523     2.709846
 H    -3.822982    -3.847507     2.818963
 C    -4.414535    -1.857183     3.397150
 H    -5.227086    -2.206957     4.037821
