 102
scf done:    -3055.126708
 C    -0.637362    -3.654679    -0.864757
 H    -0.670181    -4.137402    -1.855123
 H     0.351759    -3.918889    -0.455787
 C    -1.731672    -4.211521     0.039883
 H    -2.737273    -4.044686    -0.379112
 H    -1.616289    -5.300053     0.194879
 H    -1.719440    -3.742877     1.036487
Ir    -0.906450    -1.538018    -1.064294
 O     1.625882    -1.870729     1.193473
 O     2.265841    -2.128771    -1.226340
 O     1.841125     0.183499    -0.280209
 O    -0.906865     1.739142    -1.962938
 O    -2.994485     1.038966    -0.809058
 O    -0.854548     1.244161     0.580793
 P    -1.382612     0.641850    -0.863867
 P     1.195420    -1.317035    -0.302236
 C    -2.264096    -1.907300    -2.331792
 O    -2.982071    -2.131625    -3.196359
 C     0.693885    -2.302215     2.109284
 C    -0.375964    -1.490850     2.479562
 H    -0.486252    -0.502442     2.028308
 C     0.877905    -3.579827     2.655490
 C     2.034559    -4.424976     2.220869
 H     2.060179    -4.527346     1.124992
 H     2.992888    -3.971394     2.521142
 H     1.978101    -5.428558     2.662876
 C    -1.297583    -1.956571     3.417047
 H    -2.137014    -1.321454     3.710001
 C    -0.058064    -4.016748     3.596209
 H     0.062282    -5.012518     4.031021
 C    -1.139266    -3.221470     3.976016
 H    -1.857068    -3.593125     4.710446
 C     3.611426    -1.842891    -1.288610
 C     4.453448    -2.094411    -0.207077
 H     4.036380    -2.507912     0.711365
 C     4.116209    -1.302270    -2.466977
 H     3.433018    -1.114044    -3.297034
 C     5.804576    -1.781615    -0.310880
 H     6.458573    -1.965212     0.545867
 C     5.473368    -1.000420    -2.554986
 H     5.865499    -0.570621    -3.480781
 C     6.340742    -1.227620    -1.480226
 C     7.804292    -0.907724    -1.577129
 H     8.405324    -1.825455    -1.687034
 H     8.162748    -0.392817    -0.672777
 H     8.020412    -0.265942    -2.442831
 C     2.718169     0.773630     0.603244
 C     3.944281     1.220832     0.119093
 H     4.211752     1.026393    -0.920640
 C     2.355407     1.007351     1.927163
 H     1.382515     0.681067     2.292499
 C     4.811939     1.895308     0.972499
 H     5.773025     2.243175     0.583870
 C     3.239379     1.677452     2.767919
 H     2.945264     1.859836     3.805008
 C     4.482136     2.131970     2.312076
 C     5.438268     2.827939     3.236870
 H     6.114054     3.499587     2.687923
 H     6.067080     2.100579     3.777510
 H     4.906354     3.422614     3.993950
 C    -0.868411     3.117561    -1.909031
 C    -2.004794     3.868463    -1.622660
 H    -2.945328     3.355653    -1.422443
 C     0.369415     3.713517    -2.186518
 C     1.556476     2.862434    -2.514724
 H     1.708369     2.080076    -1.757422
 H     1.409158     2.336596    -3.471817
 H     2.468920     3.469437    -2.588568
 C    -1.904580     5.255838    -1.562512
 H    -2.788409     5.848943    -1.317401
 C     0.434957     5.108192    -2.128679
 H     1.392181     5.596307    -2.331473
 C    -0.683082     5.877869    -1.811234
 H    -0.599915     6.966017    -1.763661
 C    -3.927612     0.132767    -0.370609
 C    -3.699026    -0.688202     0.734101
 H    -2.761743    -0.619814     1.286605
 C    -5.122792     0.032724    -1.079117
 H    -5.274697     0.670760    -1.951451
 C    -4.664064    -1.619891     1.109519
 H    -4.458339    -2.275477     1.959974
 C    -6.081663    -0.892831    -0.680793
 H    -7.012506    -0.971172    -1.249212
 C    -5.871411    -1.740448     0.415338
 C    -6.917162    -2.730721     0.838592
 H    -7.439860    -3.159351    -0.029234
 H    -7.680878    -2.255248     1.476792
 H    -6.476961    -3.557973     1.413426
 C    -1.114920     2.485742     1.126520
 C    -2.361274     2.776816     1.670210
 H    -3.149816     2.023182     1.660944
 C    -0.089076     3.427993     1.156935
 H     0.885507     3.169828     0.741654
 C    -2.589841     4.044894     2.202419
 H    -3.574463     4.276851     2.617401
 C    -0.335672     4.685742     1.690635
 H     0.466897     5.427991     1.691388
 C    -1.592608     5.024078     2.210422
 C    -1.855401     6.405216     2.735296
 H    -2.814991     6.460009     3.268363
 H    -1.888867     7.137230     1.911211
 H    -1.063061     6.732871     3.425783
