  90
scf done:    -2897.985873
 C     0.639389    -3.413516    -1.174266
 H     0.739676    -3.769233    -2.212679
 H     1.672045    -3.372066    -0.790554
 C    -0.175769    -4.400032    -0.344909
 H    -1.191418    -4.538992    -0.749490
 H     0.303279    -5.395719    -0.311545
 H    -0.289817    -4.064984     0.698099
Ir    -0.328092    -1.500927    -1.142171
 O     2.239239    -1.204519     1.078749
 O     2.852738    -1.002534    -1.356446
 O     1.740984     0.939964    -0.176007
 O    -1.470573     1.653960    -1.686739
 O    -3.146134     0.184762    -0.595803
 O    -1.136436     0.964948     0.785003
 P    -1.497997     0.358335    -0.707546
 P     1.608605    -0.678880    -0.353285
 C    -1.532938    -2.175380    -2.439213
 O    -2.170101    -2.540295    -3.318493
 C     1.531423    -2.016090     1.936661
 C     0.265812    -1.649043     2.387473
 H    -0.177424    -0.710754     2.047586
 C     2.143985    -3.210097     2.340424
 C     3.501343    -3.573385     1.824090
 H     3.526483    -3.548463     0.723706
 H     4.264229    -2.861018     2.177325
 H     3.793428    -4.578602     2.155528
 C    -0.421666    -2.489899     3.262341
 H    -1.414205    -2.203251     3.617901
 C     1.433803    -4.029123     3.221933
 H     1.889566    -4.968427     3.546003
 C     0.162696    -3.682319     3.679772
 H    -0.369151    -4.346296     4.364585
 C     4.035132    -0.299542    -1.391108
 C     4.947620    -0.377153    -0.340564
 H     4.709254    -0.987494     0.530630
 C     4.299140     0.477899    -2.516935
 H     3.559396     0.511438    -3.318633
 C     6.134015     0.348755    -0.419106
 H     6.847658     0.299702     0.406386
 C     5.491634     1.194873    -2.585596
 H     5.702940     1.806124    -3.466188
 C     6.409418     1.136496    -1.536085
 H     7.341538     1.703003    -1.591113
 C     2.390473     1.693211     0.776244
 C     3.405475     2.549824     0.354977
 H     3.706144     2.545274    -0.693865
 C     1.983577     1.665044     2.108419
 H     1.172398     1.006832     2.416484
 C     4.024434     3.381614     1.284244
 H     4.822721     4.050751     0.954920
 C     2.615983     2.497585     3.029336
 H     2.297319     2.475948     4.073933
 C     3.635593     3.357174     2.623432
 H     4.125051     4.009546     3.349838
 C    -1.865314     2.954216    -1.440451
 C    -3.169638     3.256182    -1.059757
 H    -3.890660     2.447397    -0.942430
 C    -0.890979     3.945226    -1.619629
 C     0.490622     3.572639    -2.059687
 H     0.910423     2.777212    -1.427787
 H     0.479944     3.174795    -3.087258
 H     1.161395     4.441934    -2.031338
 C    -3.512886     4.580737    -0.802771
 H    -4.528828     4.821769    -0.482793
 C    -1.268957     5.265963    -1.362352
 H    -0.524261     6.057169    -1.484962
 C    -2.560742     5.587013    -0.948612
 H    -2.824483     6.627131    -0.744478
 C    -3.734294    -1.004654    -0.253536
 C    -3.178638    -1.859448     0.701541
 H    -2.244996    -1.597095     1.200166
 C    -4.922662    -1.342146    -0.899802
 H    -5.326422    -0.659353    -1.649321
 C    -3.812752    -3.066204     0.992089
 H    -3.360425    -3.739173     1.724246
 C    -5.554181    -2.543462    -0.589446
 H    -6.483221    -2.808422    -1.099552
 C    -5.000790    -3.412282     0.352236
 H    -5.494003    -4.358899     0.582560
 C    -1.795012     1.928607     1.521111
 C    -3.022601     1.648000     2.116906
 H    -3.482471     0.668234     1.982053
 C    -1.173268     3.162541     1.700478
 H    -0.206640     3.345440     1.230551
 C    -3.650057     2.637832     2.871710
 H    -4.617080     2.425970     3.333946
 C    -1.810619     4.141232     2.456035
 H    -1.332358     5.114826     2.583424
 C    -3.052589     3.885826     3.038246
 H    -3.552095     4.658748     3.626379
