  56
scf done:    -2971.956308
 C     3.827882    -0.515309    -1.587242
 H     3.876773    -1.094776    -2.522709
 H     3.909504     0.542888    -1.883591
 C     5.009885    -0.900522    -0.702538
 H     4.958463    -1.954506    -0.385729
 H     5.972888    -0.767126    -1.228312
 H     5.059328    -0.293915     0.216153
Ir     1.909218    -0.776938    -0.644411
 O     1.334588     2.053826     1.261244
 O     3.253194     0.742629     2.050547
 O     3.514169     2.077435    -0.018980
 O    -1.390571    -0.872927    -0.648929
 O    -0.455699    -2.677635     0.754907
 O    -0.399050    -0.325104     1.695225
 P    -0.090181    -1.133590     0.311101
 P     2.493581     1.035725     0.653908
 C     1.771254    -2.322170    -1.706642
 O     1.733994    -3.272262    -2.345184
 C     0.227609     2.461442     0.582669
 C    -0.858866     2.890932     1.347505
 H    -0.776827     2.861179     2.435057
 C     0.156299     2.483554    -0.811459
 H     1.006145     2.155951    -1.414754
 C    -2.016787     3.339198     0.725789
 H    -2.872948     3.672337     1.314465
 C    -1.009533     2.920402    -1.437045
 H    -1.080374     2.925837    -2.525595
 C    -2.088485     3.346820    -0.667923
Cl    -3.558158     3.848456    -1.443805
 C     2.842534    -0.331765     2.878274
 H     1.829752    -0.157308     3.272570
 H     2.851960    -1.279403     2.315636
 H     3.559290    -0.387946     3.707226
 C     4.037580     3.196178     0.678577
 H     3.227087     3.826085     1.075839
 H     4.681582     2.867317     1.507031
 H     4.629483     3.771374    -0.044122
 C    -2.729452    -1.011848    -0.388442
 C    -3.530198     0.121886    -0.517592
 H    -3.064158     1.067705    -0.789533
 C    -3.298931    -2.244426    -0.066031
 H    -2.660394    -3.123592     0.013490
 C    -4.900455     0.039225    -0.297349
 H    -5.527924     0.926269    -0.397295
 C    -4.670604    -2.328312     0.159782
 H    -5.131121    -3.283626     0.416936
 C    -5.465220    -1.187842     0.049222
Cl    -7.171181    -1.299275     0.335269
 C     0.486754    -3.407867     1.511844
 H     1.503907    -3.286972     1.100985
 H     0.489641    -3.084991     2.566979
 H     0.200528    -4.467018     1.464478
 C    -1.543896    -0.497160     2.511051
 H    -2.358904     0.160438     2.174546
 H    -1.895142    -1.539951     2.497622
 H    -1.259799    -0.222282     3.536880
