  90
scf done:    -4735.866294
 C    -0.806511     0.585054    -3.843299
 H    -0.382592    -0.052222    -4.640159
 H    -1.783842     0.134267    -3.608081
 C    -1.028684     2.000816    -4.365914
 H    -0.106247     2.441967    -4.776185
 H    -1.781282     2.018424    -5.174337
 H    -1.386925     2.681006    -3.578561
Ir     0.579129     0.401042    -2.204188
 O    -2.667487     0.226236    -1.216796
 O    -1.595891    -1.986658    -1.523122
 O    -1.086334    -0.641647     0.556974
 O     1.987623    -0.798577     0.711601
 O     3.567073    -0.387205    -1.259689
 O     2.780223     1.443268     0.168326
 P     2.148941     0.145761    -0.633113
 P    -1.199247    -0.479001    -1.066355
 C     1.834266     1.262064    -3.328676
 O     2.577814     1.799918    -4.010466
 C    -2.883059     1.572194    -1.394760
 C    -3.913356     1.948098    -2.252181
 H    -4.496613     1.173329    -2.752516
 C    -2.122218     2.532744    -0.738428
 H    -1.336901     2.234503    -0.041896
 C    -4.166921     3.297728    -2.464010
 H    -4.974548     3.587642    -3.141527
 C    -2.382896     3.881559    -0.973842
 H    -1.779402     4.636414    -0.463133
 C    -3.400637     4.291621    -1.839192
 C    -3.664216     5.745069    -2.104671
 H    -4.731571     5.987787    -1.988080
 H    -3.379859     6.017422    -3.134097
 H    -3.094051     6.389189    -1.420858
 C    -2.627189    -2.694094    -0.942961
 C    -3.878918    -2.698104    -1.553014
 H    -4.026320    -2.131366    -2.473292
 C    -2.401757    -3.399618     0.236398
 H    -1.415238    -3.370550     0.698466
 C    -4.920986    -3.419770    -0.977658
 H    -5.908919    -3.436712    -1.440193
 C    -3.442851    -4.120536     0.813314
 H    -3.286177    -4.673720     1.740595
 C    -4.697852    -4.125835     0.204882
Cl    -5.994996    -5.018350     0.925158
 C    -1.850386    -0.074278     1.548062
 C    -1.193118     0.727021     2.478553
 H    -0.118379     0.882965     2.376891
 C    -3.222006    -0.303771     1.644945
 H    -3.726735    -0.936374     0.914950
 C    -1.910727     1.319211     3.512553
 H    -1.414200     1.967864     4.235377
 C    -3.940839     0.289955     2.678236
 H    -5.015699     0.126044     2.767027
 C    -3.284559     1.100097     3.603924
Cl    -4.186717     1.844493     4.881499
 C     1.559119    -2.096838     0.722633
 C     1.199225    -2.631120     1.958812
 H     1.240221    -1.990209     2.841000
 C     1.508723    -2.891888    -0.423548
 H     1.786473    -2.481172    -1.397222
 C     0.801142    -3.960783     2.045346
 H     0.526658    -4.370235     3.021430
 C     1.097067    -4.219270    -0.317397
 H     1.053114    -4.829145    -1.223461
 C     0.739211    -4.782617     0.911245
 C     0.252915    -6.199484     1.001371
 H     0.394469    -6.612555     2.010322
 H     0.776621    -6.852456     0.288088
 H    -0.823533    -6.260884     0.766283
 C     4.712144    -0.576870    -0.516902
 C     4.978470    -1.829746     0.029853
 H     4.263561    -2.642367    -0.109998
 C     5.610348     0.475787    -0.354283
 H     5.376124     1.447742    -0.789616
 C     6.153434    -2.033622     0.747766
 H     6.376825    -3.009009     1.182387
 C     6.786142     0.274671     0.361246
 H     7.501202     1.087482     0.496776
 C     7.050713    -0.979507     0.911441
Cl     8.512782    -1.230132     1.806940
 C     2.086546     2.155901     1.105611
 C     2.369777     1.942952     2.454700
 H     3.111150     1.189168     2.723729
 C     1.144076     3.107995     0.717934
 H     0.940087     3.252331    -0.345219
 C     1.709634     2.688974     3.426269
 H     1.921507     2.536743     4.485738
 C     0.475213     3.848111     1.689773
 H    -0.272230     4.592194     1.411165
 C     0.759970     3.633568     3.037280
Cl    -0.089892     4.538078     4.246971
