  84
scf done:    -3414.552767
 C     1.561616    -3.677050    -1.262479
 H     2.010987    -3.732853    -2.269183
 H     2.420170    -3.533708    -0.584436
 C     0.862803    -4.988292    -0.923287
 H     0.088254    -5.249010    -1.662336
 H     1.573702    -5.833394    -0.885817
 H     0.356634    -4.951524     0.056051
Ir     0.247515    -1.991617    -1.203324
 O     2.232131    -0.877274     1.347834
 O     3.408588    -1.160462    -0.844860
 O     1.783715     0.806486    -0.522810
 O    -1.572066     0.844072    -1.845207
 O    -2.808133    -1.029512    -0.683062
 O    -1.093802     0.367897     0.629146
 P    -1.287919    -0.404396    -0.806859
 P     1.932216    -0.804759    -0.280064
 C    -0.825932    -2.808590    -2.528795
 O    -1.421126    -3.201681    -3.426115
 C     1.216296    -1.219472     2.216620
 C     0.746445    -2.531213     2.258242
 H     1.180976    -3.283136     1.597771
 C     0.676648    -0.241300     3.047526
 H     1.039419     0.785318     2.977288
 C    -0.273591    -2.868384     3.145410
 H    -0.661913    -3.886784     3.201896
 C    -0.342930    -0.573478     3.934146
 H    -0.794598     0.174849     4.587188
 C    -0.803950    -1.883799     3.969173
 F    -1.796491    -2.202636     4.804554
 C     4.637390    -0.685477    -0.431356
 C     5.169194    -1.055629     0.801386
 H     4.601587    -1.714752     1.457431
 C     5.349578     0.138385    -1.299906
 H     4.912420     0.398338    -2.264637
 C     6.411308    -0.557411     1.187099
 H     6.853781    -0.821533     2.149141
 C     6.589772     0.636368    -0.916893
 H     7.164359     1.295784    -1.569300
 C     7.102012     0.288648     0.328392
 F     8.284808     0.771742     0.702681
 C     2.732132     1.794357    -0.376516
 C     2.948052     2.630702    -1.469445
 H     2.381526     2.457450    -2.386210
 C     3.422798     1.988831     0.819739
 H     3.242258     1.325218     1.664755
 C     3.886763     3.654841    -1.381302
 H     4.082022     4.322654    -2.222108
 C     4.370233     3.003819     0.904624
 H     4.942454     3.167993     1.819074
 C     4.594488     3.821852    -0.196956
 F     5.503323     4.790210    -0.113495
 C    -2.808814     1.295596    -2.247849
 C    -3.313635     2.491400    -1.740356
 H    -2.733747     3.054041    -1.008905
 C    -3.535666     0.561487    -3.186019
 H    -3.125054    -0.373355    -3.571306
 C    -4.557009     2.953233    -2.166359
 H    -4.974914     3.886240    -1.784527
 C    -4.780696     1.016692    -3.608956
 H    -5.371832     0.459214    -4.337452
 C    -5.277835     2.208468    -3.091753
 F    -6.469149     2.646010    -3.495466
 C    -3.668573    -0.902620     0.377792
 C    -4.841262    -0.164842     0.226428
 H    -5.053722     0.317437    -0.728584
 C    -3.373091    -1.530393     1.587104
 H    -2.447241    -2.099347     1.680688
 C    -5.718946    -0.043411     1.301007
 H    -6.644390     0.528459     1.214272
 C    -4.240796    -1.400065     2.667964
 H    -4.015127    -1.863221     3.629656
 C    -5.405335    -0.656059     2.509428
 F    -6.240610    -0.527047     3.539225
 C    -1.413450     1.654440     0.986650
 C    -2.462406     1.879583     1.877077
 H    -3.043743     1.035673     2.248061
 C    -0.644699     2.716888     0.510977
 H     0.169887     2.514361    -0.182122
 C    -2.757480     3.179330     2.279725
 H    -3.576117     3.384277     2.971704
 C    -0.938217     4.017478     0.912420
 H    -0.353984     4.866214     0.552704
 C    -1.994804     4.233594     1.790032
 F    -2.278780     5.476573     2.174190
