 104
scf done:    -3031.274935
 C    -1.495639     0.817048     3.858223
 H    -1.080188     1.276077     4.768994
 H    -2.224000     1.554986     3.482028
 C    -2.201397    -0.480880     4.242364
 H    -1.501631    -1.200865     4.695162
 H    -3.012876    -0.314093     4.975070
 H    -2.651118    -0.994984     3.374463
Ir     0.032868     0.374907     2.430296
 O    -1.941592    -1.418994     0.426379
 C    -3.250583     0.965179     1.099406
 C    -1.091308     0.845806    -0.855952
 O     2.014832    -0.175850    -0.436130
 C     3.331417    -0.592385     1.929387
 C     1.344192    -2.422009     0.767765
 P     1.650009    -0.620973     1.140148
 P    -1.605361     0.184011     0.772819
 C     1.250367     1.176300     3.580943
 O     1.980596     1.798639     4.220137
 C    -3.033001    -1.947226    -0.208513
 C    -3.918349    -2.716383     0.547084
 H    -3.729219    -2.838148     1.615279
 C    -3.227383    -1.802226    -1.583824
 H    -2.509912    -1.239558    -2.180599
 C    -5.025666    -3.303106    -0.057865
 H    -5.738121    -3.901184     0.512858
 C    -4.340344    -2.375010    -2.190583
 H    -4.527826    -2.255822    -3.258736
 C    -5.227706    -3.112768    -1.418535
 F    -6.305916    -3.646516    -1.998844
 H    -3.636885     0.469596     2.001878
 H    -2.983223     1.989480     1.404446
 C    -4.287998     0.992890     0.013105
 C    -4.153896     1.826867    -1.103325
 H    -3.297050     2.499627    -1.185657
 C    -5.439413     0.204945     0.123382
 H    -5.568268    -0.422505     1.009071
 C    -5.125969     1.818616    -2.101623
 H    -5.011480     2.471912    -2.970227
 C    -6.426350     0.188794    -0.864445
 C    -7.640521    -0.683771    -0.730212
 H    -7.771620    -1.031991     0.304080
 H    -8.553916    -0.147930    -1.029228
 H    -7.560339    -1.576694    -1.370329
 C    -6.246165     1.000122    -1.991725
 H    -7.004044     1.003977    -2.780092
 H    -0.230147     0.224463    -1.154270
 H    -1.902007     0.643735    -1.572781
 C    -0.736076     2.312004    -0.915643
 C    -0.692341     3.148043     0.203152
 H    -0.844314     2.737446     1.206522
 C    -0.445176     2.862231    -2.170860
 H    -0.462431     2.211445    -3.050337
 C    -0.387384     4.501188     0.056915
 H    -0.361379     5.143996     0.940221
 C    -0.114285     4.208120    -2.332367
 C     0.261321     4.758857    -3.676360
 H     0.015505     4.056595    -4.485162
 H    -0.251558     5.711270    -3.879534
 H     1.344701     4.955883    -3.717987
 C    -0.103869     5.029376    -1.196264
 H     0.143398     6.089497    -1.300322
 C     2.402485     1.032368    -0.910728
 C     2.746262     1.068842    -2.266390
 H     2.686111     0.141524    -2.839816
 C     2.467404     2.193396    -0.137924
 H     2.157728     2.171999     0.908810
 C     3.148452     2.264304    -2.851770
 H     3.415278     2.319059    -3.908801
 C     2.872175     3.390579    -0.724913
 H     2.909235     4.314683    -0.146863
 C     3.205323     3.412437    -2.070588
 F     3.568327     4.570064    -2.637743
 H     3.574690     0.473658     2.061740
 H     3.158547    -0.998140     2.938944
 C     4.427179    -1.318230     1.217955
 C     4.810832    -2.606380     1.609628
 H     4.341832    -3.071372     2.481161
 C     5.060845    -0.736150     0.114084
 H     4.777644     0.273747    -0.192527
 C     5.787314    -3.296392     0.894066
 H     6.077668    -4.303224     1.203368
 C     6.034958    -1.416699    -0.620152
 C     6.693113    -0.761752    -1.799562
 H     7.017131    -1.503881    -2.543563
 H     6.013135    -0.050690    -2.291201
 H     7.587860    -0.197310    -1.488156
 C     6.388070    -2.711170    -0.217821
 H     7.144814    -3.263646    -0.781568
 H     2.067812    -2.989827     1.372766
 H     0.339260    -2.630243     1.161258
 C     1.436375    -2.811258    -0.681965
 C     0.274892    -2.941492    -1.449250
 H    -0.695551    -2.805201    -0.974064
 C     2.673610    -3.011803    -1.300142
 H     3.587409    -2.919459    -0.711768
 C     0.357892    -3.246747    -2.805569
 H    -0.558433    -3.356627    -3.391661
 C     2.775934    -3.308436    -2.662050
 C     4.126263    -3.465784    -3.300666
 H     4.567131    -2.481511    -3.532489
 H     4.829365    -3.977632    -2.627465
 H     4.067737    -4.032512    -4.241041
 C     1.599431    -3.421260    -3.412335
 H     1.658851    -3.659247    -4.478181
