  76
scf done:    -2264.872367
 C    -2.958804    -1.645072    -1.384276
 H    -3.107961    -1.946107    -2.433122
 H    -3.137962    -2.560725    -0.800527
 C    -3.987644    -0.577348    -1.028749
 H    -3.895806     0.309474    -1.676256
 H    -5.023758    -0.946236    -1.142649
 H    -3.886979    -0.222101     0.012424
Ir    -1.026084    -0.795683    -1.118804
 O    -1.646059     0.082111     2.298921
 C    -2.486604    -2.344114     1.748145
 C     0.445800    -1.624683     1.883308
 O     1.873187     1.130145    -0.144657
 C     1.544319     0.874788    -2.885827
 C    -0.163032     2.494097    -0.995349
 P     0.624373     0.840839    -1.257032
 P    -1.201841    -1.122708     1.193906
 C    -0.529835    -1.586774    -2.710539
 O    -0.142180    -2.224165    -3.593710
 C    -1.335821     1.399657     2.201896
 C    -2.321770     2.300053     1.788816
 H    -3.302419     1.913231     1.507063
 C    -0.074312     1.873391     2.576328
 H     0.688191     1.168595     2.909678
 C    -2.047960     3.663576     1.734253
 H    -2.800877     4.383659     1.409005
 C     0.206877     3.235735     2.517228
 H     1.188512     3.626906     2.789799
 C    -0.781727     4.113673     2.089782
 F    -0.506707     5.416262     2.007380
 H    -3.356347    -2.021907     1.152498
 C    -2.132147    -3.765509     1.320599
 H    -3.035062    -4.395409     1.341092
 H    -1.716643    -3.805789     0.302897
 H    -1.402188    -4.217512     2.008389
 C    -2.893346    -2.274043     3.215731
 H    -3.167525    -1.254492     3.513899
 H    -3.766304    -2.927435     3.375525
 H    -2.095933    -2.622405     3.886255
 H     1.039868    -0.731443     1.625470
 C     0.495304    -1.812615     3.393481
 H     1.545077    -1.815552     3.728150
 H    -0.034603    -1.013339     3.930920
 H     0.055561    -2.775076     3.694494
 C     1.061732    -2.800010     1.131719
 H     0.953648    -2.673273     0.044173
 H     2.133975    -2.866404     1.366585
 H     0.596291    -3.753040     1.417093
 C     2.854591     0.273967     0.218575
 C     3.568220     0.597951     1.379945
 H     3.290970     1.502534     1.924290
 C     3.195702    -0.877256    -0.497840
 H     2.634601    -1.157559    -1.389810
 C     4.610124    -0.210787     1.817816
 H     5.176929     0.030899     2.718795
 C     4.244737    -1.686454    -0.063852
 H     4.521529    -2.588350    -0.612592
 C     4.940294    -1.348238     1.087571
 F     5.942426    -2.124251     1.503381
 H     1.776339    -0.190975    -3.055057
 C     0.613782     1.308450    -4.015678
 H     1.071520     1.065283    -4.987038
 H    -0.360662     0.799371    -3.971767
 H     0.436786     2.393870    -3.995112
 C     2.855863     1.650389    -2.896925
 H     3.549865     1.313164    -2.115389
 H     3.354166     1.504130    -3.868782
 H     2.698340     2.728895    -2.766429
 H    -0.337993     2.423737     0.087137
 C     0.714353     3.714597    -1.230782
 H     0.233759     4.598362    -0.780960
 H     1.700649     3.598331    -0.760682
 H     0.855784     3.925457    -2.301569
 C    -1.528943     2.597539    -1.662095
 H    -2.147765     1.713439    -1.438643
 H    -2.055867     3.486059    -1.280690
 H    -1.458779     2.692783    -2.754720
