 106
scf done:    -2459.325892
 C    -1.123534    -2.882550    -2.037811
 H    -0.711678    -3.895649    -2.170755
 H    -2.090903    -3.047758    -1.529315
 C    -1.341748    -2.259356    -3.413572
 H    -0.391157    -2.149304    -3.959129
 H    -2.011144    -2.868599    -4.049651
 H    -1.787232    -1.251566    -3.357300
Ir     0.186301    -1.638773    -0.884792
 O    -1.308274     1.329598    -0.219334
 C    -3.257989    -0.466021    -1.033343
 C    -1.944485    -0.631344     1.564261
 O     1.271096     0.240070     1.645844
 C     3.408388    -0.771464     0.197959
 C     1.857268     1.437484    -0.795063
 P     1.678427    -0.174932     0.062497
 P    -1.619520    -0.333996    -0.209155
 C     1.379194    -3.059182    -0.848660
 O     2.068169    -3.972543    -0.696059
 C    -2.219765     2.326019    -0.420175
 C    -2.930119     2.856390     0.657435
 H    -2.757612     2.447898     1.654970
 C    -2.369911     2.843315    -1.717861
 C    -1.525392     2.326158    -2.843457
 H    -1.859613     2.733542    -3.807024
 H    -0.470375     2.609616    -2.699741
 H    -1.536523     1.227536    -2.909948
 C    -3.841025     3.889034     0.449336
 H    -4.399280     4.299633     1.293778
 C    -3.296895     3.874711    -1.900043
 H    -3.435096     4.284469    -2.904347
 C    -4.033640     4.392037    -0.835792
 H    -4.750234     5.197632    -1.009933
 H    -3.200923     0.176088    -1.927029
 H    -3.298866    -1.497407    -1.417928
 C    -4.514681    -0.147284    -0.233369
 H    -4.623632    -0.868672     0.594011
 H    -4.432127     0.847189     0.231085
 C    -5.767219    -0.179970    -1.098038
 H    -5.864082    -1.173160    -1.573291
 H    -5.649704     0.540783    -1.927523
 C    -7.038806     0.144452    -0.326851
 H    -7.150635    -0.572694     0.505758
 H    -6.926769     1.136419     0.145765
 C    -8.289677     0.126183    -1.190156
 H    -9.191022     0.365791    -0.605915
 H    -8.444155    -0.863653    -1.649045
 H    -8.219323     0.859756    -2.009405
 H    -1.032013    -0.276261     2.069544
 H    -2.788114    -0.002724     1.892970
 C    -2.181069    -2.103759     1.876897
 H    -3.082273    -2.467809     1.351399
 H    -1.336884    -2.683965     1.465009
 C    -2.321879    -2.371998     3.367988
 H    -3.160530    -1.777217     3.775133
 H    -1.416417    -2.006601     3.885402
 C    -2.536431    -3.842180     3.698657
 H    -3.439627    -4.202830     3.174977
 H    -1.698429    -4.429031     3.283602
 C    -2.665533    -4.113255     5.188728
 H    -2.818450    -5.183258     5.395937
 H    -3.517529    -3.565304     5.622951
 H    -1.760881    -3.795387     5.731744
 C     1.995716     0.945521     2.565831
 C     3.020266     0.308334     3.271448
 H     3.231718    -0.739928     3.055845
 C     1.641930     2.275024     2.855210
 C     0.520525     2.959432     2.133857
 H     0.903950     3.656068     1.369453
 H    -0.124232     2.238368     1.618594
 H    -0.089593     3.553816     2.829805
 C     3.740744     0.998666     4.240802
 H     4.542973     0.493038     4.783217
 C     2.379078     2.942989     3.840129
 H     2.115383     3.978141     4.075644
 C     3.424476     2.326651     4.522271
 H     3.981255     2.877471     5.283565
 H     4.016895    -0.060864     0.779196
 H     3.360927    -1.710126     0.774524
 C     4.026629    -1.029325    -1.173506
 H     3.281216    -1.501955    -1.837120
 H     4.284777    -0.068350    -1.651004
 C     5.263439    -1.913799    -1.107080
 H     4.981304    -2.885179    -0.663115
 H     6.002501    -1.465838    -0.417786
 C     5.910131    -2.149594    -2.464432
 H     5.161119    -2.589868    -3.145928
 H     6.184889    -1.176807    -2.910085
 C     7.134494    -3.048078    -2.400293
 H     7.578438    -3.202500    -3.395411
 H     6.879602    -4.039266    -1.992192
 H     7.913881    -2.616535    -1.751522
 H     1.920267     1.169200    -1.864851
 H     0.876993     1.921833    -0.670487
 C     2.998061     2.366023    -0.401243
 H     3.005099     2.525805     0.688383
 H     3.967833     1.897669    -0.639860
 C     2.912434     3.715771    -1.101261
 H     1.933148     4.178277    -0.878037
 H     2.925635     3.564625    -2.196425
 C     4.025265     4.675443    -0.704671
 H     4.006255     4.812249     0.391184
 H     5.001308     4.209563    -0.928521
 C     3.931941     6.027119    -1.393498
 H     4.747589     6.698504    -1.085130
 H     2.980096     6.530107    -1.158052
 H     3.984202     5.921837    -2.489191
