 100
scf done:    -3299.701199
 C     2.980886     2.347356    -1.259154
 H     3.857149     2.587498    -0.631645
 H     3.333175     1.574163    -1.967693
 C     2.562968     3.579887    -2.052987
 H     2.326996     4.430335    -1.393496
 H     3.354498     3.914010    -2.748831
 H     1.660932     3.393518    -2.660221
Ir     1.367876     1.571924    -0.096240
 O     2.320670    -1.385719    -1.688650
 C     4.181894    -0.426189    -0.046029
 C     1.848903    -1.792159     0.933356
 O    -0.837386    -0.500706     1.562117
 C    -1.744091     2.070161     1.516417
 C    -1.762604     0.449781    -0.878570
 P    -0.720325     0.873716     0.573650
 P     2.369354    -0.495858    -0.244777
 C     1.279950     3.185695     0.825990
 O     1.337020     4.078193     1.557282
 C     1.201478    -1.345807    -2.460165
 C     0.885164    -0.207848    -3.208956
 H     1.533661     0.668272    -3.148346
 C     0.374252    -2.470217    -2.522640
 H     0.640173    -3.352508    -1.936770
 C    -0.242340    -0.201180    -4.024776
 H    -0.492489     0.680410    -4.617117
 C    -0.755719    -2.467401    -3.337650
 H    -1.401998    -3.344501    -3.399817
 C    -1.058390    -1.330463    -4.085680
Cl    -2.459590    -1.325379    -5.107117
 H     4.543025     0.251456    -0.834638
 H     4.351021     0.104636     0.906171
 C     4.923323    -1.754542    -0.091795
 H     4.625422    -2.384911     0.763441
 H     4.627175    -2.304991    -1.000329
 C     6.435658    -1.577227    -0.071491
 H     6.726155    -1.004596     0.828167
 H     6.740907    -0.955015    -0.932200
 C     7.200028    -2.893364    -0.102730
 H     6.892468    -3.510698     0.760096
 H     6.898588    -3.463635    -0.999193
 C     8.709531    -2.714825    -0.091972
 H     9.233691    -3.682206    -0.114496
 H     9.041882    -2.177262     0.810709
 H     9.048825    -2.132312    -0.963585
 H     0.795265    -2.004068     0.701434
 H     2.427305    -2.703859     0.715000
 C     1.973683    -1.362071     2.388149
 H     3.038833    -1.259644     2.662256
 H     1.526923    -0.359796     2.497874
 C     1.286153    -2.325389     3.344455
 H     1.771580    -3.317165     3.290010
 H     0.246696    -2.478414     3.006830
 C     1.271876    -1.840329     4.786371
 H     2.309205    -1.689788     5.134707
 H     0.798317    -0.843137     4.818702
 C     0.542112    -2.783561     5.728814
 H     0.539452    -2.406540     6.762826
 H     1.010676    -3.780934     5.739854
 H    -0.507112    -2.918435     5.419396
 C    -1.928547    -1.302823     1.677929
 C    -2.129096    -2.348451     0.771403
 H    -1.405180    -2.512189    -0.029024
 C    -2.836741    -1.106573     2.721390
 H    -2.647145    -0.313801     3.447095
 C    -3.265198    -3.144773     0.862065
 H    -3.442792    -3.945703     0.142666
 C    -3.973424    -1.903869     2.818751
 H    -4.697725    -1.746456     3.619502
 C    -4.193797    -2.906484     1.874837
Cl    -5.633934    -3.865208     1.958660
 H    -2.686448     1.587072     1.820967
 H    -1.171453     2.280303     2.435322
 C    -2.013229     3.360734     0.747518
 H    -1.122722     3.639911     0.158176
 H    -2.816162     3.191585     0.010597
 C    -2.386621     4.525492     1.653019
 H    -1.557810     4.703703     2.361219
 H    -3.262362     4.250588     2.269071
 C    -2.681025     5.809442     0.890975
 H    -1.800503     6.070010     0.277708
 H    -3.502144     5.627442     0.174770
 C    -3.038622     6.977755     1.795105
 H    -3.242385     7.891629     1.216863
 H    -2.219256     7.203464     2.496243
 H    -3.935224     6.758185     2.397124
 H    -1.491024     1.198676    -1.640636
 H    -1.348418    -0.496007    -1.264735
 C    -3.280011     0.355055    -0.724404
 H    -3.554260    -0.113383     0.232308
 H    -3.716398     1.367184    -0.696245
 C    -3.911738    -0.446251    -1.852669
 H    -3.407430    -1.427491    -1.914641
 H    -3.709551     0.044629    -2.820383
 C    -5.406750    -0.670194    -1.686599
 H    -5.588071    -1.184655    -0.725604
 H    -5.917955     0.305770    -1.606768
 C    -6.014047    -1.477965    -2.822197
 H    -7.094260    -1.633221    -2.680673
 H    -5.541427    -2.470463    -2.899521
 H    -5.869945    -0.975250    -3.791774
