  82
scf done:    -2145.069112
 C     0.998937    -3.833033    -0.292486
 H     1.869004    -4.421887     0.039077
 H     0.175316    -4.174402     0.360905
 C     0.699257    -4.173800    -1.749625
 H     1.544136    -3.908893    -2.404886
 H     0.502038    -5.252501    -1.896890
 H    -0.179174    -3.632027    -2.139770
Ir     1.352970    -1.725069    -0.122940
 O    -1.520838     0.031988    -0.539011
 C    -2.166984    -2.633720    -0.285553
 C    -1.217186    -1.045285     1.971022
 O     0.976851     1.366261     1.011180
 C     3.464700     1.102909    -0.091195
 C     1.134398     1.352253    -1.783352
 P     1.728103     0.531250    -0.249574
 P    -0.921845    -1.369376     0.195261
 C     3.087682    -2.126611     0.396520
 O     4.116222    -2.359383     0.865692
 C    -2.840540     0.378048    -0.602874
 C    -3.460656     1.050753     0.451438
 H    -2.886422     1.293200     1.346916
 C    -3.565263     0.096737    -1.763070
 H    -3.061839    -0.405566    -2.591491
 C    -4.805090     1.403012     0.351172
 H    -5.281628     1.923037     1.186731
 C    -4.907025     0.452679    -1.846863
 H    -5.465257     0.217346    -2.757436
 C    -5.556249     1.106314    -0.790972
 C    -7.000250     1.501550    -0.901480
 H    -7.122519     2.381797    -1.554206
 H    -7.424233     1.756932     0.079820
 H    -7.606983     0.691687    -1.333921
 H    -2.332457    -2.482120    -1.365690
 H    -1.641905    -3.598897    -0.205059
 C    -3.494900    -2.693903     0.463096
 H    -3.984760    -1.708022     0.463059
 H    -3.306915    -2.943669     1.520282
 C    -4.436345    -3.723236    -0.142849
 H    -4.684297    -3.465253    -1.184855
 H    -3.984189    -4.727898    -0.148779
 H    -5.380564    -3.782601     0.419319
 H    -0.673151    -0.106608     2.167254
 H    -2.290982    -0.863571     2.139174
 C    -0.695978    -2.160646     2.871454
 H     0.369944    -2.320873     2.638693
 H    -1.203076    -3.111095     2.629410
 C    -0.878583    -1.843214     4.346716
 H    -0.347225    -0.917547     4.619024
 H    -1.941464    -1.702412     4.602274
 H    -0.486866    -2.652636     4.981060
 C     0.732281     2.708219     1.039862
 C    -0.461259     3.206758     0.512692
 H    -1.168560     2.509993     0.063014
 C     1.646068     3.583297     1.627288
 H     2.565192     3.182526     2.058755
 C    -0.718009     4.572917     0.550562
 H    -1.652534     4.949573     0.124897
 C     1.374786     4.949818     1.657109
 H     2.101634     5.627447     2.113833
 C     0.194573     5.472725     1.117069
 C    -0.104206     6.943049     1.173107
 H     0.811786     7.535977     1.307125
 H    -0.775739     7.180471     2.015242
 H    -0.602113     7.288254     0.254717
 H     3.489922     2.204352    -0.052004
 H     3.805024     0.732838     0.890615
 C     4.370638     0.574005    -1.199390
 H     4.116653     1.069388    -2.151501
 H     4.168906    -0.498226    -1.359225
 C     5.846232     0.772667    -0.891342
 H     6.083938     1.835540    -0.724253
 H     6.133178     0.217699     0.015659
 H     6.479442     0.412986    -1.716367
 H     1.388223     0.629478    -2.579038
 H     0.035689     1.319686    -1.709354
 C     1.635997     2.746115    -2.150308
 H     2.716701     2.708152    -2.363607
 H     1.518014     3.435373    -1.301042
 C     0.898726     3.309140    -3.355743
 H     1.001405     2.651828    -4.234243
 H    -0.177565     3.412215    -3.143780
 H     1.281316     4.303127    -3.633274
