 110
scf done:    -2911.469264
 C     0.901342    -0.610384    -3.341510
 H     1.131007     0.150535    -4.106437
 H     1.893252    -0.919665    -2.971326
 C     0.219949    -1.805587    -3.999472
 H    -0.719753    -1.515643    -4.495276
 H     0.858408    -2.285171    -4.764461
 H    -0.047540    -2.589071    -3.269583
Ir    -0.339056     0.272935    -1.813697
 O     0.985872    -0.107424     1.259017
 C     1.308789    -2.414322    -0.268831
 C     3.036335    -0.188388    -0.642514
 O    -1.898625     2.275883     0.612583
 C    -3.616277     1.044569    -0.960620
 C    -2.191674    -0.341747     1.128233
 P    -1.922928     0.832803    -0.257977
 P     1.268813    -0.553401    -0.326969
 C    -1.314895     1.019003    -3.215475
 O    -1.855849     1.519608    -4.098771
 C     1.817305    -0.034349     2.343650
 C     2.903450     0.838418     2.346973
 H     3.078205     1.472483     1.477470
 C     1.487171    -0.785659     3.484560
 C     0.266119    -1.655037     3.525376
 H    -0.638528    -1.052495     3.708891
 H     0.098413    -2.189658     2.580199
 H     0.337916    -2.396245     4.332875
 C     3.720032     0.930649     3.469812
 H     4.569582     1.617451     3.460522
 C     2.322736    -0.668786     4.600912
 H     2.085716    -1.255056     5.493040
 C     3.436996     0.167351     4.600059
 H     4.072560     0.232021     5.485860
 H     0.517869    -2.683539     0.448421
 H     0.934558    -2.722913    -1.254409
 C     2.620360    -3.068119     0.060969
 C     3.096056    -3.048735     1.377714
 H     2.485491    -2.598480     2.160864
 C     3.414014    -3.661449    -0.944270
 C     2.950496    -3.759052    -2.369480
 H     2.781057    -2.771516    -2.826706
 H     1.998769    -4.307748    -2.451675
 H     3.691586    -4.286018    -2.985215
 C     4.341786    -3.569745     1.711988
 H     4.686228    -3.528939     2.747777
 C     4.663901    -4.183908    -0.589805
 H     5.279412    -4.642820    -1.368367
 C     5.136334    -4.135753     0.718686
 H     6.118865    -4.547563     0.960849
 H     3.586267    -0.634294     0.198262
 H     3.281611    -0.833794    -1.504345
 C     3.489740     1.220462    -0.910050
 C     2.654708     2.157700    -1.521234
 H     1.627232     1.863825    -1.777652
 C     4.815576     1.580070    -0.579607
 C     5.758865     0.594535     0.048888
 H     5.891889    -0.301696    -0.578067
 H     5.391938     0.242032     1.027447
 H     6.748654     1.044565     0.205690
 C     3.105302     3.444079    -1.805622
 H     2.435242     4.156395    -2.291607
 C     5.244438     2.881194    -0.858855
 H     6.268289     3.165212    -0.600185
 C     4.403725     3.811072    -1.467213
 H     4.768413     4.818877    -1.680383
 C    -0.768189     2.798465     1.184600
 C    -0.457336     2.478831     2.505597
 H    -1.099454     1.778931     3.043418
 C     0.004823     3.711802     0.452815
 C    -0.388284     4.075995    -0.944496
 H    -0.280946     3.209081    -1.618288
 H    -1.445286     4.380929    -0.987344
 H     0.228354     4.899451    -1.328263
 C     0.651991     3.053826     3.117904
 H     0.903362     2.789290     4.147412
 C     1.118797     4.270140     1.088319
 H     1.741375     4.974980     0.531695
 C     1.446056     3.948525     2.403854
 H     2.325476     4.396876     2.871459
 H    -3.580594     2.032462    -1.449437
 H    -3.685866     0.300380    -1.764199
 C    -4.772354     0.941500    -0.006353
 C    -4.922813     1.898974     1.006693
 H    -4.191666     2.706652     1.074822
 C    -5.708521    -0.110309    -0.106090
 C    -5.626402    -1.151794    -1.184891
 H    -4.694781    -1.734391    -1.121837
 H    -5.665671    -0.699954    -2.189154
 H    -6.463436    -1.858381    -1.106048
 C    -5.965622     1.823917     1.925396
 H    -6.059040     2.581827     2.706793
 C    -6.752806    -0.165302     0.825569
 H    -7.479475    -0.978729     0.749281
 C    -6.886579     0.782650     1.836132
 H    -7.712295     0.709986     2.548074
 H    -1.221653    -0.383594     1.645385
 H    -2.903565     0.154680     1.800690
 C    -2.668880    -1.720212     0.758771
 C    -2.226534    -2.356013    -0.408353
 H    -1.551318    -1.811307    -1.085570
 C    -3.572340    -2.397447     1.606876
 C    -4.086007    -1.763116     2.866418
 H    -4.654279    -0.844047     2.649783
 H    -3.265501    -1.488264     3.548516
 H    -4.754852    -2.447905     3.405349
 C    -2.655677    -3.637411    -0.747625
 H    -2.297952    -4.102652    -1.669367
 C    -3.997055    -3.680948     1.247791
 H    -4.701076    -4.202658     1.901963
 C    -3.548067    -4.304883     0.085493
 H    -3.899907    -5.307897    -0.167475
