  86
scf done:    -2597.178093
 C    -2.648531     0.477009    -2.402046
 H    -2.490694     0.858857    -3.424653
 H    -3.243579    -0.443157    -2.524184
 C    -3.444014     1.505371    -1.610528
 H    -4.342982     1.838591    -2.160692
 H    -3.797244     1.097662    -0.650057
 H    -2.854134     2.407247    -1.379451
Ir    -0.735533     0.078911    -1.534135
 O    -2.407909     0.556466     1.536611
 C    -3.268064    -1.584698     0.200205
 C    -0.816223    -1.604766     1.565613
 O     1.584078    -0.084221     0.942606
 C     2.684282    -0.859078    -1.494758
 C     2.092942     1.879487    -0.818223
 P     1.413171     0.185031    -0.700013
 P    -1.785741    -0.546655     0.436055
 C    -0.161160    -0.331660    -3.253562
 O     0.140137    -0.742567    -4.287146
 C    -2.123965     1.896309     1.496037
 C    -0.837004     2.358567     1.235432
 H    -0.029964     1.640365     1.100961
 C    -3.181820     2.783427     1.749088
 C    -4.552502     2.261204     2.049883
 H    -5.260089     3.084910     2.214831
 H    -4.931739     1.639858     1.223403
 H    -4.548280     1.624660     2.948954
 C    -0.586075     3.728170     1.176899
 H     0.424497     4.078641     0.953020
 C    -2.900195     4.150973     1.698840
 H    -3.713303     4.857851     1.885786
 C    -1.622383     4.628634     1.404696
 H    -1.439126     5.704457     1.360947
 C    -3.296876    -2.481435    -0.872689
 C    -4.336569    -1.543327     1.101531
 C    -5.454674    -3.285670    -0.145990
 C    -5.428743    -2.388900     0.921945
 C    -4.386423    -3.333234    -1.040394
 H    -2.465981    -2.490340    -1.583761
 H    -4.405679    -4.029120    -1.882380
 H    -6.313129    -3.947568    -0.283447
 H    -6.265811    -2.348388     1.623175
 H    -4.308365    -0.843188     1.937852
 C    -0.669821    -1.293836     2.917851
 C    -0.193691    -2.743688     1.044330
 C     0.740584    -3.234449     3.215776
 C     0.577502    -3.557184     1.868073
 C     0.116528    -2.104223     3.737021
 H    -1.165342    -0.409324     3.322677
 H     0.246517    -1.844725     4.790279
 H     1.365992    -3.859498     3.856810
 H     1.066571    -4.441870     1.453492
 H    -0.308027    -2.984894    -0.015970
 C     2.603960    -0.499111     1.749271
 C     3.363182    -1.634928     1.465225
 H     3.169660    -2.200828     0.556711
 C     2.793512     0.215655     2.947253
 C     1.933387     1.395304     3.278147
 H     1.981475     2.171306     2.499734
 H     0.875820     1.101354     3.354218
 H     2.236530     1.845686     4.232939
 C     4.344899    -2.056258     2.358526
 H     4.934689    -2.945623     2.124619
 C     3.781322    -0.236675     3.826029
 H     3.935217     0.309174     4.761044
 C     4.560371    -1.356967     3.542273
 H     5.326930    -1.684357     4.248056
 C     2.278347    -2.127391    -1.931551
 C     4.018044    -0.470217    -1.660686
 C     4.531999    -2.620570    -2.635633
 C     4.937057    -1.350408    -2.227657
 C     3.199281    -3.007358    -2.492000
 H     1.227842    -2.411476    -1.826492
 H     2.874131    -3.994562    -2.828177
 H     5.255827    -3.308284    -3.079593
 H     5.977257    -1.040811    -2.352430
 H     4.342917     0.523299    -1.346840
 C     1.510524     2.764866    -1.732866
 C     3.127028     2.332827     0.013093
 C     2.990666     4.524900    -0.996441
 C     3.571762     3.650072    -0.077441
 C     1.961201     4.080285    -1.824209
 H     0.682110     2.415330    -2.356459
 H     1.494964     4.763848    -2.537319
 H     3.339220     5.558406    -1.062462
 H     4.375728     3.995824     0.576722
 H     3.585858     1.659275     0.741110
