  92
scf done:    -3270.904924
 C     0.600426    -1.859168    -3.281101
 H     0.351681    -1.598420    -4.322320
 H     1.701308    -1.750692    -3.235142
 C     0.215291    -3.313766    -3.023399
 H    -0.868168    -3.467866    -3.145033
 H     0.725160    -4.012773    -3.711761
 H     0.458732    -3.641597    -1.997459
Ir    -0.439334    -0.577336    -1.898214
 O     1.443391     0.213343     0.786116
 C     2.547000    -1.991012    -0.521144
 C     2.712607     0.761004    -1.563172
 O    -0.831323     2.157289    -0.172099
 C    -3.319385     1.128048    -0.640750
 C    -1.620771     0.050986     1.415398
 P    -1.556580     0.660133    -0.330717
 P     1.567668    -0.434488    -0.759805
 C    -1.695581    -0.274780    -3.240547
 O    -2.391565     0.027045    -4.107339
 C     2.186276    -0.084739     1.889973
 C     1.765250    -1.110649     2.741341
 H     0.870554    -1.685470     2.488695
 C     3.309174     0.678208     2.215956
 H     3.622037     1.483249     1.550908
 C     2.481190    -1.390512     3.902853
 H     2.172305    -2.186922     4.582102
 C     4.025934     0.404359     3.376651
 H     4.910469     0.982915     3.648252
 C     3.606336    -0.631052     4.204629
 F     4.292356    -0.895765     5.313411
 H     2.113683    -2.477159     0.366594
 H     2.255068    -2.609214    -1.382672
 C     4.042052    -1.901149    -0.424384
 C     4.815193    -1.759791    -1.584898
 H     4.323515    -1.733529    -2.561254
 C     4.704808    -1.973351     0.806281
 H     4.129120    -2.108335     1.723936
 C     6.201956    -1.664712    -1.524489
 H     6.808503    -1.555569    -2.425167
 C     6.091679    -1.882561     0.885452
 H     6.611875    -1.939400     1.843219
 C     6.824564    -1.720816    -0.283112
 F     8.150571    -1.627853    -0.214812
 H     3.642551     0.803229    -0.975907
 H     2.959557     0.326477    -2.544208
 C     2.060909     2.105284    -1.710868
 C     1.185570     2.351992    -2.775824
 H     1.028708     1.580193    -3.532498
 C     2.237423     3.101829    -0.747843
 H     2.919898     2.935047     0.088163
 C     0.487366     3.550685    -2.865417
 H    -0.208707     3.745814    -3.682946
 C     1.547742     4.309024    -0.822004
 H     1.664058     5.084727    -0.063632
 C     0.665717     4.507159    -1.874258
 F    -0.035076     5.641597    -1.931162
 C    -1.051618     3.091275     0.793947
 C    -0.333656     3.038904     1.992150
 H     0.377876     2.227107     2.146464
 C    -1.916707     4.159248     0.545264
 H    -2.426151     4.218556    -0.417994
 C    -0.503954     4.032147     2.951416
 H     0.046825     4.013171     3.893604
 C    -2.087646     5.157651     1.501196
 H    -2.751955     6.005551     1.325496
 C    -1.384643     5.077892     2.696804
 F    -1.546928     6.030608     3.614464
 H    -3.520676     2.050382    -0.075082
 H    -3.398535     1.369477    -1.712699
 C    -4.283869     0.053896    -0.226891
 C    -4.253955    -1.221575    -0.809258
 H    -3.539395    -1.436415    -1.607000
 C    -5.199604     0.291461     0.803357
 H    -5.242382     1.281107     1.266512
 C    -5.093822    -2.234727    -0.361665
 H    -5.060818    -3.235836    -0.794388
 C    -6.055226    -0.709875     1.257351
 H    -6.769967    -0.532697     2.062971
 C    -5.979342    -1.967292     0.675313
 F    -6.767632    -2.942033     1.126602
 H    -0.599376     0.211639     1.788878
 H    -2.288903     0.701964     1.999492
 C    -2.012582    -1.393177     1.576436
 C    -3.008113    -1.759365     2.488728
 H    -3.517461    -0.984888     3.066323
 C    -1.385078    -2.412204     0.845369
 H    -0.632741    -2.148888     0.091912
 C    -3.380942    -3.089645     2.662244
 H    -4.171414    -3.375435     3.358276
 C    -1.745125    -3.746872     1.003523
 H    -1.269775    -4.537271     0.419660
 C    -2.744650    -4.069988     1.912631
 F    -3.101943    -5.344670     2.065186
