 102
scf done:    -3054.976204
 C    -2.767646     0.046566    -2.628243
 H    -3.121398    -0.927529    -3.006999
 H    -3.527853     0.353146    -1.887885
 C    -2.754634     1.060405    -3.765942
 H    -2.095170     0.749045    -4.591998
 H    -3.763978     1.206240    -4.192185
 H    -2.404539     2.052168    -3.436467
Ir    -0.852516    -0.207237    -1.671691
 O    -2.970739     0.958198     0.816873
 C    -3.463615    -1.565976     0.135567
 C    -1.321803    -0.871896     1.847061
 O     1.434019    -0.736669     0.812195
 C     2.758210    -0.309622    -1.504736
 C     1.354219     1.790261    -0.144521
 P     1.192027     0.049214    -0.655832
 P    -2.107349    -0.372308     0.286382
 C    -0.237441    -0.764969    -3.334259
 O     0.064727    -1.242334    -4.340216
 C    -2.666303     2.274423     0.600149
 C    -1.993365     2.741935    -0.529634
 H    -1.628616     2.036260    -1.287304
 C    -3.100044     3.182934     1.565632
 H    -3.628443     2.805735     2.443746
 C    -1.781344     4.105636    -0.689808
 H    -1.254081     4.450050    -1.583012
 C    -2.877739     4.547820     1.388659
 H    -3.236031     5.247393     2.149651
 C    -2.221665     5.039552     0.256057
 C    -2.004168     6.509298     0.038565
 H    -2.605487     6.879510    -0.807762
 H    -0.948699     6.722442    -0.190319
 H    -2.287733     7.094792     0.925218
 C    -3.344842    -2.644122    -0.751472
 H    -2.463173    -2.703830    -1.396531
 C    -4.599561    -1.469632     0.941039
 H    -4.701396    -0.629666     1.631359
 C    -4.337992    -3.608102    -0.823866
 H    -4.262977    -4.452604    -1.511166
 C    -5.610607    -2.423981     0.864075
 H    -6.492709    -2.317705     1.495770
 C    -5.481053    -3.504697    -0.018707
 O    -6.398528    -4.479297    -0.161156
 C    -7.569201    -4.426207     0.605021
 H    -8.156355    -3.514784     0.395362
 H    -8.166537    -5.303952     0.327680
 H    -7.354464    -4.468774     1.687447
 C    -1.153516     0.019355     2.912795
 H    -1.628609     1.001920     2.880625
 C    -0.735041    -2.136115     1.926309
 H    -0.863458    -2.846805     1.105225
 C    -0.356314    -0.322888     3.996569
 H    -0.191933     0.370068     4.824073
 C     0.060106    -2.492448     3.009001
 H     0.533259    -3.473944     3.025387
 C     0.290251    -1.565430     4.033389
 O     1.114983    -1.780614     5.074489
 C     1.955218    -2.903645     5.042166
 H     2.579742    -2.913467     4.131889
 H     2.607315    -2.831463     5.921895
 H     1.384737    -3.847252     5.102788
 C     2.620617    -1.082631     1.380521
 C     3.199271    -0.283558     2.367030
 H     2.713634     0.649917     2.651815
 C     3.228243    -2.289994     1.029005
 H     2.761244    -2.911576     0.263387
 C     4.377373    -0.692700     2.986930
 H     4.815166    -0.060527     3.764590
 C     4.407705    -2.683006     1.652695
 H     4.873207    -3.629979     1.364864
 C     5.008492    -1.892966     2.641248
 C     6.299800    -2.306689     3.286004
 H     7.165822    -1.955333     2.700005
 H     6.382160    -3.401059     3.361282
 H     6.399001    -1.886611     4.297512
 C     3.948739     0.362229    -1.176633
 H     3.925011     1.197250    -0.473033
 C     2.827054    -1.390812    -2.385723
 H     1.919380    -1.942952    -2.636380
 C     5.157304    -0.026828    -1.726863
 H     6.087293     0.487943    -1.479286
 C     4.036884    -1.794482    -2.946000
 H     4.048841    -2.638688    -3.635279
 C     5.212979    -1.109560    -2.618197
 O     6.428558    -1.416679    -3.102329
 C     6.551590    -2.486164    -3.999291
 H     5.964532    -2.319120    -4.919163
 H     7.614370    -2.553747    -4.263406
 H     6.235180    -3.441056    -3.544110
 C     1.691145     2.794592    -1.065516
 H     1.984209     2.525734    -2.083989
 C     0.967057     2.167248     1.142407
 H     0.679375     1.397330     1.860231
 C     1.656529     4.130266    -0.697005
 H     1.919799     4.920910    -1.402200
 C     0.921589     3.505886     1.522388
 H     0.596116     3.761273     2.530402
 C     1.261356     4.497646     0.598175
 O     1.227529     5.819424     0.860508
 C     0.842367     6.237506     2.142119
 H     1.537403     5.866792     2.915834
 H     0.868676     7.334407     2.135861
 H    -0.179936     5.902924     2.388631
