 106
scf done:    -2459.335689
 C     2.488081     1.940253    -1.998368
 H     3.280951     2.399039    -1.378449
 H     2.909394     0.972358    -2.331750
 C     2.243711     2.806759    -3.227972
 H     1.951691     3.833154    -2.953607
 H     3.142030     2.884935    -3.867989
 H     1.433340     2.403205    -3.856590
Ir     0.762893     1.504957    -0.826339
 O     1.445265    -1.670024     0.497170
 C     3.741144    -0.355859    -0.065225
 C     1.973083     0.341592     2.121539
 O    -1.204398     0.432697     1.724717
 C    -2.662980     1.904192    -0.038544
 C    -1.844458    -0.782640    -0.708304
 P    -1.230539     0.766054     0.063798
 P     1.980365    -0.069852     0.350760
 C     0.159609     3.251479    -1.013921
 O    -0.160579     4.358199    -0.921085
 C     1.128871    -2.449821    -0.571108
 C     1.224304    -2.029584    -1.900287
 H     1.574951    -1.022213    -2.140447
 C     0.652283    -3.734848    -0.291352
 H     0.594465    -4.057667     0.750140
 C     0.826669    -2.887490    -2.925369
 H     0.902211    -2.538825    -3.959008
 C     0.261275    -4.574635    -1.326928
 H    -0.112337    -5.574269    -1.087546
 C     0.334126    -4.169194    -2.666727
 C    -0.130152    -5.069058    -3.774556
 H     0.155218    -6.115874    -3.591962
 H     0.291565    -4.765836    -4.743340
 H    -1.228730    -5.042619    -3.870746
 H     4.217873     0.637927    -0.089447
 H     3.753144    -0.714113    -1.106121
 C     4.479579    -1.314404     0.856999
 H     4.568858    -0.859646     1.857878
 H     3.882509    -2.233448     0.990866
 C     5.879311    -1.702493     0.370158
 H     6.439037    -0.767474     0.178878
 C     6.616506    -2.477327     1.456577
 H     6.693625    -1.894027     2.387492
 H     7.636865    -2.742662     1.139513
 H     6.087426    -3.415465     1.693966
 C     5.835267    -2.501842    -0.927935
 H     6.848610    -2.781388    -1.254729
 H     5.370424    -1.939946    -1.751802
 H     5.257978    -3.431885    -0.792727
 H     2.416430    -0.489250     2.691904
 H     0.906288     0.397080     2.380835
 C     2.676787     1.671741     2.387071
 H     3.761457     1.498733     2.492653
 H     2.550398     2.337824     1.513121
 C     2.149115     2.409023     3.621117
 H     2.103885     1.682129     4.454557
 C     3.102703     3.527928     4.022422
 H     4.108018     3.141609     4.253407
 H     2.736931     4.068408     4.909210
 H     3.206002     4.261954     3.205859
 C     0.743009     2.951795     3.381843
 H     0.342909     3.427980     4.290502
 H     0.037156     2.167087     3.072261
 H     0.756938     3.709620     2.580804
 C    -1.989234    -0.495412     2.346298
 C    -1.577265    -1.828821     2.388647
 H    -0.617670    -2.095984     1.941646
 C    -3.182514    -0.115974     2.960067
 H    -3.474129     0.936042     2.954187
 C    -2.394222    -2.782429     2.986520
 H    -2.070309    -3.827072     3.002513
 C    -3.986781    -1.082962     3.559332
 H    -4.925731    -0.778957     4.030208
 C    -3.621033    -2.434017     3.567240
 C    -4.516691    -3.481097     4.163354
 H    -5.083396    -4.009496     3.378234
 H    -5.247687    -3.040657     4.856113
 H    -3.940519    -4.240254     4.713079
 H    -2.365045     2.799186     0.533306
 H    -3.520445     1.450577     0.482311
 C    -3.001580     2.275922    -1.479101
 H    -2.068294     2.369723    -2.061481
 H    -3.568785     1.454681    -1.952354
 C    -3.790708     3.578649    -1.621910
 H    -3.176984     4.376635    -1.164170
 C    -3.979554     3.923051    -3.093947
 H    -3.011830     4.000638    -3.613212
 H    -4.505605     4.882323    -3.217094
 H    -4.574704     3.148715    -3.606824
 C    -5.127293     3.525704    -0.891174
 H    -5.679922     4.471073    -1.005434
 H    -5.001934     3.346231     0.187515
 H    -5.762325     2.718158    -1.293950
 H    -1.166427    -1.574958    -0.356818
 H    -1.595865    -0.656261    -1.774823
 C    -3.297153    -1.206894    -0.517591
 H    -3.611548    -1.045781     0.523356
 H    -3.960072    -0.578290    -1.137880
 C    -3.538056    -2.680050    -0.858384
 H    -2.836526    -3.269694    -0.238774
 C    -4.954592    -3.086392    -0.471740
 H    -5.141600    -2.901877     0.598095
 H    -5.134538    -4.154714    -0.669375
 H    -5.701018    -2.512415    -1.046301
 C    -3.245454    -2.992196    -2.321082
 H    -3.425891    -4.056144    -2.541652
 H    -2.199369    -2.775695    -2.583868
 H    -3.896060    -2.399766    -2.986780
