  80
scf done:    -4554.873351
 C     1.769315    -2.861398    -1.026864
 H     1.881013    -3.213436    -2.065205
 H     2.785268    -2.597793    -0.696539
 C     1.212087    -3.978151    -0.152571
 H     0.234763    -4.337728    -0.515431
 H     1.886622    -4.853706    -0.128146
 H     1.077280    -3.656908     0.893567
Ir     0.373302    -1.257531    -0.839103
 O     2.567440    -0.128382     1.659884
 C     3.577640    -0.003162    -0.852350
 C     1.730595     1.840491     0.129168
 O    -2.047247     0.998987    -1.560960
 C    -2.872716    -0.917691     0.247861
 C    -1.360729     1.318635     1.028563
 P    -1.433920     0.069562    -0.299345
 P     2.004847     0.040516     0.084245
 C    -0.447944    -1.835609    -2.414320
 O    -0.855049    -2.053333    -3.470556
 C     2.619743    -1.371353     2.239125
 C     3.652849    -2.258517     1.932445
 H     4.415369    -1.968351     1.207897
 C     1.642843    -1.728083     3.167861
 H     0.855579    -1.011975     3.404373
 C     3.701488    -3.506427     2.546701
 H     4.494908    -4.220267     2.319276
 C     1.688947    -2.973352     3.789181
 H     0.936739    -3.274885     4.520062
 C     2.717289    -3.850310     3.465878
 F     2.763302    -5.044244     4.053618
 C     4.762924     0.439897    -0.253715
 H     4.755970     0.760463     0.790946
 C     3.591063    -0.405717    -2.189869
 H     2.663500    -0.761780    -2.646469
 C     5.950189     0.468739    -0.976444
 H     6.880341     0.806278    -0.516551
 C     4.771552    -0.370081    -2.926523
 H     4.790213    -0.685960    -3.970645
 C     5.945360     0.064105    -2.312695
Cl     7.419327     0.100445    -3.216931
 C     1.298200     2.464270    -1.047057
 H     1.096622     1.864612    -1.939471
 C     1.966006     2.605702     1.272959
 H     2.293077     2.117202     2.191815
 C     1.099827     3.839552    -1.081794
 H     0.754079     4.333182    -1.991277
 C     1.761696     3.982873     1.249501
 H     1.909467     4.584426     2.147837
 C     1.326437     4.588331     0.073301
Cl     1.006750     6.290795     0.061127
 C    -3.356442     0.993023    -1.965573
 C    -4.202602     2.043530    -1.608960
 H    -3.819366     2.858886    -0.993982
 C    -3.836092    -0.055199    -2.753625
 H    -3.160467    -0.861997    -3.042337
 C    -5.530812     2.043838    -2.028417
 H    -6.211410     2.854596    -1.762674
 C    -5.163908    -0.063429    -3.168306
 H    -5.562188    -0.874456    -3.780326
 C    -5.997596     0.985311    -2.797375
 F    -7.269959     0.977806    -3.191548
 C    -2.881307    -2.301417     0.041324
 H    -2.007361    -2.781522    -0.407786
 C    -3.990021    -0.312846     0.842063
 H    -3.994362     0.762395     1.032018
 C    -3.983213    -3.070633     0.403160
 H    -3.989492    -4.150175     0.246241
 C    -5.101691    -1.066409     1.195244
 H    -5.977175    -0.597490     1.646653
 C    -5.091984    -2.444496     0.969540
Cl    -6.472387    -3.386289     1.408386
 C    -1.489118     2.685088     0.775759
 H    -1.671043     3.028212    -0.243390
 C    -1.093150     0.885195     2.332199
 H    -1.006581    -0.184861     2.540427
 C    -1.343638     3.612350     1.804078
 H    -1.412510     4.682843     1.604153
 C    -0.941020     1.800384     3.367141
 H    -0.725204     1.470189     4.384604
 C    -1.059063     3.163467     3.091236
Cl    -0.806693     4.315372     4.357725
