  90
scf done:    -2897.984997
 C     1.433428    -1.249732    -3.006246
 H     1.005603    -0.958990    -3.982705
 H     2.260067    -0.541552    -2.835972
 C     2.002104    -2.663017    -3.082708
 H     1.250648    -3.395047    -3.419639
 H     2.848614    -2.720951    -3.790369
 H     2.374188    -3.011462    -2.107447
Ir    -0.171937    -0.965317    -1.598316
 O     2.800652     0.233297    -0.460828
 O     1.349605     1.958841    -1.494931
 O     0.840636     1.152127     0.845977
 O    -2.179438     0.596344     0.741607
 O    -3.354455    -0.671161    -1.147383
 O    -2.421026    -1.829510     0.800724
 P    -1.962420    -0.679693    -0.285176
 P     1.211835     0.586929    -0.639685
 C    -1.064346    -2.357710    -2.513825
 O    -1.586638    -3.212598    -3.065959
 C     3.315048    -1.022409    -0.251877
 C     4.498664    -1.347084    -0.909202
 H     4.960772    -0.606371    -1.563899
 C     2.701571    -1.939261     0.594679
 H     1.793092    -1.670826     1.136710
 C     5.056681    -2.607214    -0.730753
 H     5.983659    -2.858175    -1.253421
 C     3.269050    -3.202560     0.750359
 H     2.780976    -3.925255     1.409351
 C     4.447210    -3.564793     0.091315
 C     5.033676    -4.938662     0.238126
 H     6.126392    -4.899838     0.362473
 H     4.829731    -5.552475    -0.654802
 H     4.611345    -5.466692     1.104710
 C     2.138399     3.019604    -1.096176
 C     3.419843     3.146356    -1.626263
 H     3.779452     2.396274    -2.332129
 C     1.635760     3.947504    -0.187404
 H     0.632136     3.811175     0.214642
 C     4.209700     4.226931    -1.238428
 H     5.215665     4.334161    -1.650847
 C     2.436524     5.022600     0.192755
 H     2.049566     5.750602     0.909739
 C     3.722130     5.165682    -0.328693
 H     4.346061     6.009555    -0.026133
 C     1.540044     1.061404     2.026111
 C     0.915022     0.409799     3.086833
 H    -0.075535    -0.021631     2.935382
 C     2.806360     1.626561     2.170739
 H     3.276166     2.136164     1.329381
 C     1.570992     0.320319     4.311887
 H     1.081403    -0.194181     5.141558
 C     3.452110     1.522928     3.401039
 H     4.446587     1.959466     3.519158
 C     2.840985     0.872909     4.472792
 H     3.355651     0.797026     5.433155
 C    -2.029998     1.913130     0.410344
 C    -1.946561     2.822766     1.463511
 H    -1.969233     2.444782     2.486867
 C    -1.994454     2.367924    -0.908995
 H    -2.058853     1.662757    -1.741001
 C    -1.835777     4.182214     1.193404
 H    -1.774191     4.886106     2.028049
 C    -1.872686     3.733575    -1.158753
 H    -1.835045     4.075977    -2.196175
 C    -1.793511     4.667117    -0.121129
 C    -1.610517     6.128982    -0.407052
 H    -1.954722     6.751560     0.431321
 H    -2.159829     6.436361    -1.308964
 H    -0.546200     6.363989    -0.579965
 C    -4.613337    -0.582011    -0.589003
 C    -5.207444     0.667963    -0.433061
 H    -4.657164     1.564491    -0.723896
 C    -5.287746    -1.747469    -0.231094
 H    -4.790630    -2.709149    -0.363055
 C    -6.496804     0.747749     0.089783
 H    -6.966405     1.726483     0.212977
 C    -6.576316    -1.655110     0.288845
 H    -7.109739    -2.566532     0.569086
 C    -7.183801    -0.409931     0.452293
 H    -8.194609    -0.342628     0.860692
 C    -1.713869    -2.127770     1.934113
 C    -2.202417    -1.679215     3.160940
 H    -3.108101    -1.070824     3.172130
 C    -0.557270    -2.903971     1.862168
 H    -0.199874    -3.233019     0.883893
 C    -1.528354    -2.022961     4.331001
 H    -1.911986    -1.679497     5.294717
 C     0.111751    -3.233440     3.039907
 H     1.018018    -3.841410     2.994091
 C    -0.369939    -2.798466     4.274055
 H     0.158109    -3.065707     5.191905
