  52
scf done:    -2671.190038
 C    -4.256143     1.157800     0.458029
 H    -5.081274     0.639673     0.972237
 H    -3.960507     1.957974     1.161562
 C    -4.783904     1.770547    -0.836406
 H    -5.167435     0.996863    -1.519911
 H    -5.610876     2.482378    -0.655087
 H    -4.005959     2.317936    -1.394165
Ir    -2.629940    -0.188406     0.050990
 O     0.213379     1.503581    -0.598837
 C    -1.675981     3.326440     0.064769
 C    -0.574212     1.612574     2.058360
 O     0.451142    -1.356000     0.442732
 C    -1.153092    -3.342390    -0.535869
 C    -0.213950    -1.281342    -2.234633
 P    -0.901673    -1.534874    -0.563889
 P    -1.177470     1.596585     0.343916
 C    -3.813215    -1.596986     0.342915
 O    -4.512710    -2.470413     0.612553
 C     1.352030     2.220087    -0.368188
 C     2.308649     1.743312     0.531803
 H     2.117277     0.811200     1.064607
 C     1.590193     3.396746    -1.081012
 H     0.843377     3.746530    -1.796049
 C     3.494421     2.444716     0.725368
 H     4.249139     2.077453     1.422529
 C     2.775477     4.101438    -0.890381
 H     2.972623     5.020421    -1.444576
 C     3.721770     3.623721     0.015597
Cl     5.197017     4.498095     0.255118
 H    -2.577174     3.538936     0.656490
 H    -0.872903     4.018613     0.357024
 H    -1.918988     3.466349    -0.997362
 H     0.150717     2.418038     2.246728
 H    -1.455141     1.744944     2.703650
 H    -0.131025     0.631111     2.274745
 C     1.619412    -2.039584     0.287579
 C     2.616140    -1.559248    -0.567289
 H     2.438270    -0.644601    -1.134171
 C     1.850178    -3.195311     1.038461
 H     1.071146    -3.549423     1.716088
 C     3.829227    -2.232550    -0.677082
 H     4.612976    -1.860647    -1.338939
 C     3.061100    -3.872406     0.931866
 H     3.248870    -4.774113     1.516931
 C     4.045847    -3.389308     0.070551
Cl     5.554826    -4.229144    -0.064977
 H    -0.243162    -3.895566    -0.811753
 H    -1.487680    -3.650055     0.464787
 H    -1.953886    -3.580033    -1.251952
 H     0.105876    -0.234214    -2.320171
 H     0.621528    -1.959391    -2.462478
 H    -1.032771    -1.457823    -2.948006
