  86
scf done:    -2597.179679
 C    -2.797680     0.144326    -2.156970
 H    -2.716218    -0.284463    -3.171206
 H    -3.422799    -0.571569    -1.598392
 C    -3.511661     1.489940    -2.219655
 H    -2.983626     2.205794    -2.870451
 H    -4.539412     1.387195    -2.614061
 H    -3.595136     1.958211    -1.226838
Ir    -0.821026     0.319916    -1.312439
 O    -3.028993    -1.128497     0.870441
 C    -1.825504    -2.921887    -0.700538
 C    -0.592383    -1.898005     1.625451
 O     2.084383    -0.622503     0.074061
 C     2.410960     1.747930    -1.182850
 C     0.960542     1.552184     1.320675
 P     1.174576     0.732730    -0.294832
 P    -1.532894    -1.348064     0.159151
 C    -0.362838     1.163036    -2.909609
 O    -0.087253     1.575308    -3.947757
 C    -3.575148     0.109163     1.068362
 C    -4.951981     0.243424     0.892443
 H    -5.529765    -0.630459     0.586602
 C    -2.810784     1.207813     1.456116
 H    -1.734311     1.110142     1.611533
 C    -5.554325     1.479672     1.093256
 H    -6.633798     1.575424     0.946484
 C    -3.430867     2.442006     1.643653
 H    -2.817514     3.296016     1.941727
 C    -4.806481     2.606328     1.462569
 C    -5.462081     3.946655     1.628623
 H    -5.669876     4.409711     0.649572
 H    -4.821772     4.640780     2.191522
 H    -6.423038     3.864497     2.158742
 C    -1.408063    -3.073819    -2.024816
 C    -2.455180    -3.980842    -0.034634
 C    -2.244778    -5.338407    -2.020753
 C    -2.668726    -5.184183    -0.698772
 C    -1.613623    -4.286602    -2.681554
 H    -0.928963    -2.224327    -2.522940
 H    -1.285586    -4.405929    -3.716747
 H    -2.410618    -6.286812    -2.537873
 H    -3.165684    -6.009535    -0.183388
 H    -2.779248    -3.855605     1.001378
 C    -1.006658    -1.561329     2.917685
 C     0.580302    -2.641440     1.447127
 C     0.937726    -2.664955     3.835049
 C     1.346106    -3.015675     2.546545
 C    -0.242449    -1.947449     4.018614
 H    -1.930320    -0.999131     3.065884
 H    -0.573384    -1.681362     5.025336
 H     1.539188    -2.961197     4.697901
 H     2.268140    -3.581848     2.396314
 H     0.900474    -2.916798     0.440745
 C     3.417912    -0.735042     0.334194
 C     4.168303     0.228558     1.007600
 H     3.703417     1.154185     1.344982
 C     4.032852    -1.919709    -0.080309
 H     3.432498    -2.660476    -0.612176
 C     5.521052    -0.000646     1.253613
 H     6.096517     0.765263     1.780851
 C     5.380313    -2.135195     0.181424
 H     5.844063    -3.069421    -0.148110
 C     6.155477    -1.178286     0.850077
 C     7.618633    -1.405668     1.098355
 H     8.013980    -0.702672     1.845275
 H     8.205572    -1.270389     0.174560
 H     7.813208    -2.427660     1.457873
 C     2.860430     1.241537    -2.409734
 C     2.929586     2.957233    -0.710814
 C     4.320760     3.143700    -2.677547
 C     3.875148     3.654815    -1.460525
 C     3.814966     1.932355    -3.148922
 H     2.457124     0.297185    -2.785434
 H     4.160377     1.526383    -4.102348
 H     5.064762     3.690517    -3.261661
 H     4.271627     4.601163    -1.084991
 H     2.603538     3.355644     0.252242
 C     0.341563     2.811765     1.352159
 C     1.250523     0.898064     2.521819
 C     0.358989     2.769592     3.767209
 C     0.946925     1.507174     3.739067
 C     0.057651     3.422288     2.570200
 H     0.063870     3.304311     0.415943
 H    -0.412079     4.408800     2.586367
 H     0.124475     3.244262     4.722872
 H     1.167930     0.981571     4.670836
 H     1.698022    -0.097913     2.506861
