  98
scf done:    -2754.317330
 C    -1.498031    -3.165075    -1.212279
 H    -1.007482    -4.151968    -1.163627
 H    -2.233406    -3.179107    -0.390604
 C    -2.220449    -3.025577    -2.547717
 H    -1.520154    -3.099327    -3.395405
 H    -2.986441    -3.810728    -2.688519
 H    -2.734242    -2.056277    -2.643268
Ir    -0.012985    -1.649219    -0.844617
 O    -1.387064     1.209172     0.164476
 C    -3.362705    -0.547075    -0.458749
 C    -1.874491    -0.878983     2.011038
 O     1.553988     0.416717     1.212100
 C     3.331074    -0.889936    -0.416490
 C     1.827111     1.321784    -1.404883
 P     1.652130    -0.164537    -0.362146
 P    -1.691316    -0.430835     0.250763
 C     1.079202    -2.693817    -1.935978
 O     1.709022    -3.329632    -2.657971
 C    -2.192095     2.274210     0.471397
 C    -2.955245     2.333245     1.635574
 H    -2.928116     1.504745     2.339517
 C    -2.156782     3.359052    -0.423231
 C    -1.280711     3.315513    -1.634171
 H    -0.216198     3.334224    -1.353650
 H    -1.415465     2.388384    -2.210691
 H    -1.476079     4.171324    -2.294600
 C    -3.724970     3.462021     1.909143
 H    -4.320089     3.496233     2.824672
 C    -2.938480     4.477352    -0.122975
 H    -2.923458     5.323621    -0.815399
 C    -3.724754     4.537159     1.026188
 H    -4.327083     5.424469     1.232789
 C    -3.722424     0.325011    -1.494225
 H    -3.046009     1.126794    -1.790797
 C    -4.245190    -1.580349    -0.121089
 H    -3.990530    -2.287995     0.669454
 C    -4.934572     0.177266    -2.156657
 H    -5.195626     0.877399    -2.954823
 C    -5.453502    -1.726574    -0.796542
 H    -6.125128    -2.542742    -0.517201
 C    -5.821728    -0.854021    -1.825107
 C    -7.109028    -1.032412    -2.573631
 H    -6.933910    -1.553724    -3.529485
 H    -7.831343    -1.630105    -2.000010
 H    -7.573861    -0.064306    -2.811940
 C    -3.075118    -0.831008     2.733187
 H    -3.997424    -0.507182     2.246154
 C    -0.711305    -1.295970     2.671594
 H     0.228753    -1.334765     2.116874
 C    -3.104209    -1.184138     4.077584
 H    -4.050531    -1.138280     4.623675
 C    -0.747248    -1.636840     4.019790
 H     0.175697    -1.945906     4.517681
 C    -1.942027    -1.591713     4.746351
 C    -1.984437    -1.996926     6.189384
 H    -2.162932    -3.081306     6.283184
 H    -1.034130    -1.777823     6.697022
 H    -2.792868    -1.484273     6.730102
 C     2.444177     1.153114     1.948119
 C     3.698064     0.652578     2.302762
 H     3.997608    -0.339331     1.968343
 C     2.010250     2.409918     2.409049
 C     0.639351     2.898998     2.069388
 H     0.477406     2.915697     0.982339
 H    -0.129122     2.225299     2.476464
 H     0.465087     3.907441     2.467614
 C     4.557365     1.423676     3.083692
 H     5.540193     1.027607     3.349706
 C     2.892087     3.157648     3.193547
 H     2.566883     4.137851     3.553189
 C     4.160477     2.682661     3.524821
 H     4.830387     3.291240     4.136431
 C     3.494522    -2.157051     0.163084
 H     2.619844    -2.671539     0.572973
 C     4.447159    -0.254593    -0.964979
 H     4.344386     0.726495    -1.432409
 C     4.747208    -2.753026     0.219037
 H     4.855021    -3.738029     0.681812
 C     5.699688    -0.863964    -0.915553
 H     6.562495    -0.350391    -1.348616
 C     5.875055    -2.116310    -0.320000
 C     7.218650    -2.782223    -0.287988
 H     8.030948    -2.063097    -0.463926
 H     7.399081    -3.277536     0.677783
 H     7.287957    -3.558692    -1.067912
 C     2.496251     2.495148    -1.031603
 H     2.947347     2.586556    -0.041701
 C     1.281210     1.236856    -2.690618
 H     0.737815     0.327997    -2.969492
 C     2.596097     3.558145    -1.925054
 H     3.112424     4.470580    -1.613763
 C     1.408312     2.294887    -3.585448
 H     0.979535     2.206311    -4.587544
 C     2.056871     3.478520    -3.215832
 C     2.138847     4.642341    -4.158587
 H     3.044850     5.240820    -3.985083
 H     2.137201     4.313227    -5.207628
 H     1.273632     5.313366    -4.024390
