  86
scf done:    -4435.062769
 C    -1.491836    -1.797545     3.073038
 H    -1.471613    -1.503994     4.135454
 H    -2.502532    -1.509646     2.732208
 C    -1.319899    -3.308035     2.951014
 H    -0.353731    -3.640571     3.362964
 H    -2.111827    -3.861749     3.488857
 H    -1.351524    -3.646128     1.902115
Ir     0.073739    -0.782773     1.993568
 O    -0.900724     0.119857    -1.073657
 C    -2.336951    -2.017162    -0.276978
 C    -2.866921     0.605807     0.801376
 O     3.108133     0.416040     1.725355
 C     2.433922    -0.982946    -0.552602
 C     1.517820     1.726807    -0.038519
 P     1.769930     0.098557     0.760581
 P    -1.515182    -0.516071     0.348125
 C     1.077659    -0.806468     3.582475
 O     1.640997    -0.766171     4.580386
 C    -1.619400     0.871904    -1.967332
 C    -1.801815     2.234128    -1.724386
 H    -1.401166     2.667253    -0.806713
 C    -2.129468     0.294689    -3.126594
 H    -1.984748    -0.771617    -3.306571
 C    -2.485376     3.014348    -2.647542
 H    -2.607338     4.083020    -2.450827
 C    -2.819769     1.090168    -4.041553
 H    -3.218099     0.631662    -4.950747
 C    -3.009732     2.458333    -3.823103
 C    -3.737000     3.316360    -4.817254
 H    -4.536051     3.899876    -4.334224
 H    -4.192550     2.712796    -5.614666
 H    -3.054063     4.038702    -5.293320
 C    -1.676423    -2.768167    -1.258830
 H    -0.744017    -2.395171    -1.689481
 C    -3.525906    -2.510201     0.271632
 H    -4.052757    -1.943361     1.041840
 C    -2.194492    -3.982522    -1.693588
 H    -1.685049    -4.567245    -2.461254
 C    -4.051240    -3.727201    -0.153555
 H    -4.977946    -4.114608     0.272254
 C    -3.382328    -4.456636    -1.134904
Cl    -4.031819    -5.967281    -1.668926
 C    -2.679297     1.440270     1.909390
 H    -1.765621     1.321018     2.502691
 C    -4.032539     0.729590     0.033169
 H    -4.188744     0.092120    -0.839923
 C    -3.636623     2.390401     2.248551
 H    -3.500570     3.042065     3.112824
 C    -4.995117     1.676084     0.363289
 H    -5.902026     1.784908    -0.232985
 C    -4.787344     2.503322     1.468267
Cl    -5.979699     3.686644     1.876403
 C     4.352498     0.695770     1.229150
 C     4.691726     1.982605     0.810437
 H     3.955570     2.784059     0.879854
 C     5.294655    -0.330696     1.153083
 H     5.009796    -1.331041     1.484191
 C     5.965358     2.225686     0.300097
 H     6.220631     3.236344    -0.030636
 C     6.563399    -0.070487     0.646554
 H     7.290933    -0.884690     0.586017
 C     6.922809     1.209269     0.204671
 C     8.302572     1.487480    -0.317618
 H     8.312745     2.359751    -0.986906
 H     8.705629     0.626658    -0.871298
 H     9.002750     1.699504     0.507797
 C     1.916066    -2.283469    -0.600405
 H     1.150196    -2.566798     0.131339
 C     3.446328    -0.624438    -1.455570
 H     3.891152     0.372051    -1.425244
 C     2.366559    -3.203292    -1.542024
 H     1.959662    -4.215138    -1.579252
 C     3.909556    -1.536153    -2.398576
 H     4.698271    -1.261085    -3.100339
 C     3.361066    -2.818534    -2.440306
Cl     3.931193    -3.949654    -3.618410
 C     1.182730     2.781565     0.822965
 H     1.133738     2.598944     1.900251
 C     1.547771     1.964423    -1.414707
 H     1.754503     1.149557    -2.109293
 C     0.904503     4.050216     0.326228
 H     0.638144     4.870279     0.994940
 C     1.272175     3.230026    -1.926282
 H     1.275672     3.409705    -3.002123
 C     0.950475     4.264917    -1.052604
Cl     0.545925     5.823802    -1.688194
