  92
scf done:    -2874.137399
 C    -1.990179    -3.068851     1.279735
 H    -1.905137    -3.516000     2.284219
 H    -2.915862    -2.467395     1.327605
 C    -2.149495    -4.170558     0.236992
 H    -1.281549    -4.849250     0.229012
 H    -3.046866    -4.791401     0.420289
 H    -2.244078    -3.764929    -0.783439
Ir    -0.252255    -1.852660     0.887345
 O    -0.995366     0.890683    -0.865359
 C    -2.835042    -1.033248    -1.367032
 C    -2.844293     0.452856     1.126782
 O     2.923905    -1.131094     1.195459
 C     2.098022    -0.554393    -1.364924
 C     1.533737     1.178815     0.911371
 P     1.554815    -0.574100     0.378094
 P    -1.752589    -0.375334    -0.061538
 C     0.750226    -3.111626     1.854000
 O     1.336908    -3.876227     2.476327
 C    -1.563468     2.111504    -1.101605
 C    -1.583028     3.072655    -0.087775
 H    -1.176552     2.822248     0.892764
 C    -2.082601     2.408520    -2.361889
 H    -2.062987     1.645737    -3.140978
 C    -2.119500     4.331867    -0.334268
 H    -2.147676     5.097673     0.442726
 C    -2.620315     3.669385    -2.613216
 H    -3.030647     3.928569    -3.590758
 C    -2.633236     4.614781    -1.595151
 F    -3.149102     5.821431    -1.832575
 C    -2.311386    -1.147918    -2.662322
 H    -1.315657    -0.756649    -2.883923
 C    -4.100753    -1.552505    -1.084855
 H    -4.506698    -1.472546    -0.073445
 C    -3.064424    -1.764428    -3.655191
 H    -2.663167    -1.849271    -4.668033
 C    -4.860998    -2.187705    -2.074289
 C    -6.199091    -2.776892    -1.737004
 H    -6.076978    -3.722603    -1.183683
 H    -6.786307    -2.101380    -1.097213
 H    -6.786465    -2.992722    -2.640380
 C    -4.327040    -2.280191    -3.362880
 H    -4.908635    -2.767577    -4.150096
 C    -3.990648     1.162901     0.744331
 H    -4.316550     1.168283    -0.298013
 C    -2.424293     0.467569     2.459342
 H    -1.527002    -0.105794     2.722200
 C    -4.698639     1.877228     1.704026
 H    -5.591304     2.437391     1.416370
 C    -3.124021     1.191751     3.430942
 C    -2.645769     1.204395     4.853167
 H    -2.633516     0.187450     5.275511
 H    -1.616469     1.591502     4.917462
 H    -3.285269     1.830148     5.491014
 C    -4.265532     1.893783     3.030785
 H    -4.828349     2.465985     3.773755
 C     4.191809    -0.709942     0.919309
 C     4.692767     0.476315     1.461739
 H     4.061943     1.073704     2.120591
 C     4.995243    -1.489734     0.083556
 H     4.583021    -2.412594    -0.327590
 C     5.984653     0.893241     1.147789
 H     6.397667     1.817569     1.555729
 C     6.288109    -1.080579    -0.227825
 H     6.932004    -1.672958    -0.880413
 C     6.764001     0.113523     0.301833
 F     7.998353     0.516763    -0.005102
 C     1.429873    -1.428855    -2.232078
 H     0.615028    -2.042299    -1.831909
 C     3.168105     0.206823    -1.850168
 H     3.710993     0.878684    -1.181497
 C     1.817648    -1.515942    -3.565421
 H     1.293202    -2.194936    -4.242272
 C     3.579662     0.115885    -3.184464
 C     4.756407     0.916313    -3.661467
 H     4.614782     1.991167    -3.468038
 H     5.673701     0.613412    -3.131009
 H     4.927809     0.784594    -4.738824
 C     2.883590    -0.749182    -4.035333
 H     3.189511    -0.829568    -5.082296
 C     1.342824     1.393463     2.284777
 H     1.240044     0.534600     2.953942
 C     1.636220     2.276221     0.056826
 H     1.732594     2.116469    -1.018667
 C     1.295117     2.690986     2.782546
 H     1.156496     2.859050     3.853621
 C     1.589503     3.589337     0.544250
 C     1.664446     4.748230    -0.404925
 H     1.895297     5.687102     0.117805
 H     2.430773     4.586472    -1.177518
 H     0.700190     4.881058    -0.923707
 C     1.426966     3.780692     1.918933
 H     1.391037     4.797727     2.319132
