  80
scf done:    -3286.263824
 C     1.194056    -1.866984     2.853794
 H     2.005364    -1.628066     3.560095
 H     0.275951    -1.503577     3.344860
 C     1.106629    -3.376556     2.654683
 H     2.033314    -3.787524     2.222661
 H     0.931922    -3.906792     3.609341
 H     0.280699    -3.648670     1.978352
Ir     1.530344    -0.946111     0.939916
 O    -1.337625    -0.063667    -0.482033
 O    -1.659846    -1.903093     1.267655
 O    -1.304474     0.427091     2.043815
 O     1.113024     0.920613    -1.926663
 O     3.455651    -0.000865    -1.542778
 O     1.615405    -1.439456    -2.374974
 P     1.917276    -0.358709    -1.199886
 P    -0.729929    -0.633046     0.958735
 C     3.338170    -0.742409     1.419915
 O     4.403372    -0.510964     1.775317
 C    -2.648328    -0.014440    -0.860564
 C    -2.995943    -0.619442    -2.070195
 H    -2.221054    -1.113321    -2.657645
 C    -3.623712     0.639088    -0.104866
 H    -3.344473     1.119647     0.831506
 C    -4.312666    -0.587800    -2.517436
 H    -4.590671    -1.060130    -3.460860
 C    -4.943777     0.665591    -0.545817
 H    -5.712783     1.169161     0.042074
 C    -5.285946     0.049384    -1.748240
Cl    -6.928690     0.081932    -2.294877
 C    -2.905297    -1.964603     1.997818
 H    -3.299164    -0.942431     2.097250
 C    -2.624099    -2.524383     3.374541
 H    -1.932053    -1.869894     3.922682
 H    -2.171179    -3.524348     3.300397
 H    -3.557481    -2.603009     3.951713
 C    -3.858951    -2.803246     1.176882
 H    -4.025313    -2.349883     0.189165
 H    -3.452119    -3.815805     1.034147
 H    -4.829532    -2.886360     1.687797
 C    -0.649386     1.706074     2.249077
 H    -0.064690     1.936546     1.344790
 C     0.287882     1.607818     3.430905
 H     1.069524     0.860434     3.234672
 H    -0.262528     1.322523     4.340562
 H     0.770889     2.581076     3.603915
 C    -1.730664     2.747477     2.427905
 H    -2.354721     2.834096     1.527621
 H    -2.372606     2.495979     3.286505
 H    -1.275772     3.732503     2.605018
 C     0.889923     2.086143    -1.265979
 C    -0.333109     2.729102    -1.473596
 H    -1.058252     2.270611    -2.147221
 C     1.834879     2.649684    -0.401795
 H     2.793417     2.152650    -0.245962
 C    -0.619254     3.919240    -0.815034
 H    -1.575988     4.421759    -0.966083
 C     1.547057     3.838618     0.265112
 H     2.274010     4.276939     0.950547
 C     0.319044     4.463049     0.063061
Cl    -0.058884     5.918756     0.929825
 C     3.913414     0.260705    -2.885304
 H     3.031067     0.385380    -3.534371
 C     4.718979    -0.933050    -3.351624
 H     4.092520    -1.835288    -3.344015
 H     5.580563    -1.096167    -2.686348
 H     5.092126    -0.771762    -4.374245
 C     4.699677     1.553010    -2.851295
 H     4.062921     2.388789    -2.527250
 H     5.545773     1.466975    -2.152429
 H     5.095239     1.788499    -3.850508
 C     0.526080    -2.370074    -2.265345
 H    -0.285603    -1.886503    -1.697752
 C     0.980166    -3.604267    -1.515303
 H     1.314337    -3.324732    -0.501746
 H     1.815284    -4.092723    -2.040333
 H     0.152968    -4.323090    -1.417738
 C     0.048105    -2.643791    -3.673840
 H    -0.246918    -1.705673    -4.166464
 H     0.849488    -3.106286    -4.270046
 H    -0.814053    -3.327237    -3.662557
