 100
scf done:    -2904.732098
 C     2.252085    -2.593219     0.018691
 H     2.806620    -2.993112    -0.845878
 H     3.002817    -2.073419     0.632866
 C     1.631846    -3.724761     0.829489
 H     0.909325    -4.311788     0.238999
 H     2.398501    -4.428351     1.203750
 H     1.095910    -3.341408     1.712416
Ir     0.675168    -1.276767    -0.591854
 C     1.287355     0.860737     2.259109
 O     3.297097     0.458714     0.652562
 O     1.337774     1.868362    -0.277844
 C    -1.416569     1.296911    -2.050141
 O    -2.557016    -0.956134    -1.301405
 O    -1.647000     0.590295     0.611622
 P    -1.218944    -0.076653    -0.853912
 P     1.648566     0.442312     0.519618
 C     0.366516    -2.468691    -2.020634
 O     0.283730    -3.093867    -2.980892
 H     0.308794     1.358967     2.235540
 H     2.044172     1.577201     2.612318
 C     1.225802    -0.386559     3.092406
 C     2.395965    -1.011560     3.538085
 H     3.365157    -0.571414     3.291125
 C    -0.010143    -0.971196     3.391547
 H    -0.926340    -0.494543     3.033744
 C     2.330439    -2.187096     4.282020
 H     3.252094    -2.665437     4.621535
 C    -0.075398    -2.141926     4.144177
 H    -1.047811    -2.579366     4.380892
 C     1.094522    -2.753902     4.591003
 H     1.043783    -3.674737     5.176547
 C     4.154332     0.085981    -0.352717
 C     3.789312     0.126679    -1.695467
 H     2.784525     0.450368    -1.976123
 C     5.431989    -0.321549     0.031034
 H     5.688036    -0.340609     1.091596
 C     4.694586    -0.278585    -2.684139
 C     4.266641    -0.281644    -4.122432
 H     3.457336    -1.011929    -4.284453
 H     3.878014     0.702739    -4.426409
 H     5.098007    -0.542671    -4.791698
 C     6.337668    -0.704336    -0.951179
 H     7.340455    -1.028195    -0.662585
 C     5.972419    -0.690953    -2.298062
 H     6.689464    -1.006601    -3.059932
 C     1.710928     3.107840     0.185153
 C     3.036933     3.524412     0.105219
 H     3.783667     2.848050    -0.315057
 C     0.722551     3.949041     0.695750
 H    -0.308693     3.594707     0.737750
 C     3.402289     4.799863     0.551803
 C     4.828917     5.253556     0.443151
 H     5.525995     4.459134     0.748526
 H     5.077049     5.518700    -0.597764
 H     5.019686     6.138529     1.066037
 C     1.082220     5.218709     1.137372
 H     0.317797     5.887162     1.540614
 C     2.409965     5.638686     1.071761
 H     2.681947     6.635939     1.426717
 H    -1.198865     0.820260    -3.019973
 H    -0.567807     1.958913    -1.821612
 C    -2.722301     2.031208    -2.062834
 C    -2.852245     3.256860    -1.400700
 H    -1.980038     3.697244    -0.911567
 C    -3.845353     1.489444    -2.699426
 H    -3.756481     0.532206    -3.217295
 C    -4.079764     3.911362    -1.346013
 H    -4.165039     4.858962    -0.809569
 C    -5.070883     2.148656    -2.656577
 H    -5.937592     1.713306    -3.160412
 C    -5.194746     3.357649    -1.972232
 H    -6.158861     3.870047    -1.930919
 C    -2.714856    -2.267978    -0.929718
 C    -2.365563    -2.715365     0.342789
 H    -1.957946    -2.011142     1.071672
 C    -3.241922    -3.142671    -1.878357
 H    -3.494772    -2.763509    -2.869707
 C    -2.521567    -4.064961     0.683093
 C    -2.118020    -4.543350     2.046399
 H    -2.683287    -4.019528     2.833605
 H    -2.294436    -5.621448     2.163043
 H    -1.049951    -4.347632     2.227383
 C    -3.408559    -4.480436    -1.538072
 H    -3.814420    -5.177711    -2.274703
 C    -3.047503    -4.940074    -0.271521
 H    -3.173020    -5.996117    -0.020109
 C    -2.786343     1.215071     1.054321
 C    -4.067002     0.817272     0.678869
 H    -4.191879     0.000371    -0.030124
 C    -2.608703     2.253709     1.971446
 H    -1.599745     2.535226     2.276853
 C    -5.188997     1.485020     1.181799
 C    -6.559180     1.069344     0.734468
 H    -6.705013     1.313928    -0.329917
 H    -6.701111    -0.016997     0.840386
 H    -7.345012     1.576701     1.311086
 C    -3.723250     2.911662     2.479665
 H    -3.587642     3.726138     3.195355
 C    -5.005763     2.538662     2.082666
 H    -5.876236     3.064932     2.481891
