 106
scf done:    -2983.143132
 C     1.448070    -3.249943    -0.106079
 H     1.362090    -4.000448    -0.909148
 H     2.486271    -2.887399    -0.174579
 C     1.241247    -3.931368     1.241796
 H     0.228427    -4.356263     1.333391
 H     1.959125    -4.756802     1.409597
 H     1.367185    -3.229201     2.084468
Ir    -0.021852    -1.702189    -0.263576
 C     2.715548    -0.384705     1.471315
 C     2.933700    -0.370784    -1.500626
 C     1.365948     1.632331    -0.237340
 C    -2.302357     0.703844    -1.387245
 C    -3.263103    -1.030503     0.867818
 C    -1.452557     1.043327     1.446017
 P    -1.776229    -0.216877     0.151622
 P     1.740886    -0.160268    -0.117673
 C    -1.015101    -2.819716    -1.335580
 O    -1.535926    -3.422541    -2.179814
 H     2.051719     0.047380     2.236341
 H     2.653892    -1.474376     1.607858
 C     4.127890     0.085640     1.664338
 C     4.378880     1.286186     2.339789
 H     3.537642     1.865102     2.725163
 C     5.227800    -0.687854     1.229907
 C     5.056624    -2.040542     0.602444
 H     4.522837    -1.989751    -0.357201
 H     4.478287    -2.716279     1.252659
 H     6.032866    -2.509333     0.419411
 C     5.670343     1.761768     2.543994
 H     5.827495     2.703248     3.075994
 C     6.520559    -0.190167     1.433416
 H     7.369046    -0.789576     1.091673
 C     6.752910     1.024420     2.073327
 H     7.775433     1.380318     2.220951
 C     2.733249    -1.396307    -2.424690
 H     1.850068    -2.026572    -2.292525
 C     4.020434     0.509911    -1.688692
 O     4.120377     1.540053    -0.835385
 C     5.185694     2.439728    -0.940961
 H     6.155831     1.935872    -0.793964
 H     5.045835     3.174681    -0.139221
 H     5.182839     2.959540    -1.915130
 C     3.618350    -1.605986    -3.480518
 H     3.446338    -2.422937    -4.184043
 C     4.917974     0.295358    -2.741448
 H     5.772508     0.958035    -2.878229
 C     4.717662    -0.765029    -3.623674
 H     5.428847    -0.921089    -4.438942
 C     1.494704     2.527735     0.819265
 H     1.806159     2.163740     1.796251
 C     0.906130     2.125096    -1.478068
 O     0.769156     1.214142    -2.457894
 C     0.386705     1.610171    -3.742915
 H    -0.628018     2.046521    -3.752939
 H     0.389703     0.701543    -4.357592
 H     1.096684     2.338453    -4.171740
 C     1.212480     3.884772     0.666504
 H     1.320702     4.560302     1.516769
 C     0.610648     3.482171    -1.637135
 H     0.260515     3.860725    -2.597931
 C     0.775733     4.358963    -0.564008
 H     0.549936     5.419499    -0.699510
 H    -1.587946     1.538183    -1.435891
 H    -1.985200     0.000873    -2.171322
 C    -3.694640     1.193589    -1.650614
 C    -3.943592     2.573383    -1.634714
 H    -3.112817     3.255191    -1.430325
 C    -4.747415     0.315327    -1.982269
 C    -4.570199    -1.172259    -2.104300
 H    -4.960767    -1.695714    -1.217884
 H    -3.521950    -1.475986    -2.213681
 H    -5.120835    -1.552532    -2.977781
 C    -5.207045     3.096078    -1.885830
 H    -5.367305     4.176892    -1.867772
 C    -6.016458     0.858745    -2.226499
 H    -6.833802     0.178068    -2.482249
 C    -6.258668     2.227704    -2.172393
 H    -7.260020     2.615895    -2.374278
 C    -3.252087    -2.412912     1.058460
 H    -2.344892    -2.957114     0.783886
 C    -4.408967    -0.304932     1.264200
 O    -4.357996     1.028349     1.133182
 C    -5.475334     1.807718     1.450709
 H    -6.338997     1.551264     0.814526
 H    -5.190748     2.848223     1.252840
 H    -5.753821     1.704846     2.513916
 C    -4.357723    -3.089605     1.571097
 H    -4.325679    -4.173380     1.698439
 C    -5.526464    -0.981500     1.766535
 H    -6.422472    -0.429163     2.049309
 C    -5.497575    -2.367943     1.909518
 H    -6.379590    -2.881479     2.300727
 C    -1.768235     2.393906     1.336742
 H    -2.239022     2.758524     0.425158
 C    -0.865843     0.583455     2.643921
 O    -0.597147    -0.737221     2.701542
 C    -0.164711    -1.312131     3.902668
 H     0.830599    -0.938895     4.202118
 H    -0.097205    -2.391363     3.719916
 H    -0.881398    -1.124191     4.720331
 C    -1.510018     3.286246     2.376614
 H    -1.764189     4.341961     2.263804
 C    -0.596086     1.472685     3.688037
 H    -0.142302     1.118254     4.613993
 C    -0.923326     2.822263     3.548170
 H    -0.715550     3.510188     4.371462
