  80
scf done:    -2442.960726
 C    -0.904757    -2.935345    -1.311228
 H    -0.490624    -3.954797    -1.271958
 H    -1.838753    -2.992721    -0.724447
 C    -1.226346    -2.562234    -2.756122
 H    -1.942628    -3.266734    -3.220019
 H    -1.668186    -1.554553    -2.828801
 H    -0.323170    -2.567386    -3.387286
Ir     0.491816    -1.491971    -0.550877
 C    -2.086266    -1.197524     1.737020
 O    -0.975343     1.119695     0.828621
 O    -2.625057    -0.139167    -0.711459
 C     2.271231     0.658672     1.700126
 O     3.470073    -0.227234    -0.580326
 O     1.728506     1.677285    -0.643430
 P     1.958193     0.150599    -0.017901
 P    -1.329699    -0.411225     0.279002
 C     1.835927    -2.802384    -0.595749
 O     2.622894    -3.631206    -0.480886
 H    -2.895179    -0.547307     2.108993
 H    -2.564387    -2.123822     1.376736
 C    -1.061853    -1.502485     2.823421
 H    -0.543787    -0.571221     3.110391
 H    -0.283638    -2.156086     2.395625
 C    -1.686585    -2.145346     4.050381
 H    -2.447378    -1.490906     4.505635
 H    -2.180200    -3.095794     3.793544
 H    -0.926960    -2.359893     4.817054
 C    -1.906886     2.064181     1.169059
 C    -2.287245     2.217030     2.502210
 H    -1.841507     1.574441     3.264115
 C    -2.445549     2.879972     0.173425
 H    -2.129773     2.733884    -0.860015
 C    -3.227923     3.190084     2.838256
 H    -3.529479     3.310924     3.881348
 C    -3.380627     3.850799     0.522060
 H    -3.806562     4.487903    -0.256491
 C    -3.778899     4.006209     1.850780
 H    -4.515838     4.766852     2.117473
 C    -3.939404    -0.486130    -0.500182
 C    -4.774191     0.304103     0.290954
 H    -4.381051     1.202435     0.767154
 C    -4.435292    -1.625185    -1.134849
 H    -3.764175    -2.217723    -1.757789
 C    -6.109225    -0.062449     0.452934
 H    -6.760308     0.557800     1.073510
 C    -5.772034    -1.978967    -0.967233
 H    -6.157297    -2.871320    -1.466122
 C    -6.613121    -1.202637    -0.170610
 H    -7.660285    -1.483810    -0.039543
 H     2.996816     1.487887     1.712866
 H     1.303158     1.065669     2.036504
 C     2.720144    -0.507210     2.572535
 H     3.719263    -0.841547     2.248096
 H     2.044248    -1.362720     2.403754
 C     2.749745    -0.151049     4.049739
 H     3.433667     0.689899     4.245710
 H     1.750084     0.145660     4.406843
 H     3.083553    -1.003078     4.660880
 C     4.651712     0.378432    -0.249885
 C     5.699085    -0.452240     0.153420
 H     5.521035    -1.528511     0.201797
 C     4.837454     1.759482    -0.343072
 H     4.012511     2.390654    -0.674967
 C     6.935101     0.102721     0.472275
 H     7.753619    -0.550023     0.785102
 C     6.078870     2.302214    -0.013666
 H     6.224882     3.382755    -0.085892
 C     7.129290     1.482200     0.394895
 H     8.099294     1.915924     0.647179
 C     0.843939     2.045962    -1.614492
 C     0.531760     3.405859    -1.678014
 H     0.995719     4.082425    -0.958246
 C     0.269382     1.150961    -2.519716
 H     0.535797     0.086552    -2.482903
 C    -0.369127     3.865493    -2.634101
 H    -0.609233     4.930689    -2.676130
 C    -0.651199     1.619816    -3.455213
 H    -1.110887     0.909169    -4.145940
 C    -0.976326     2.973831    -3.519674
 H    -1.692915     3.333584    -4.261016
