  92
scf done:    -2599.953886
 C     1.465771    -2.581178    -1.430136
 H     1.039250    -3.040871    -2.337848
 H     2.361813    -2.047431    -1.779929
 C     1.868611    -3.693619    -0.469218
 H     0.994439    -4.260056    -0.109498
 H     2.559158    -4.419660    -0.938237
 H     2.384046    -3.302657     0.422953
Ir     0.081250    -1.179907    -0.577207
 C     1.910533    -0.299814     2.336777
 C     3.629787    -0.661106     0.038407
 C     2.065474     1.697797     0.212813
 C    -1.216304     1.150035     1.873446
 C    -2.283350     1.429180    -0.793381
 C    -3.018654    -0.835762     0.952177
 P    -1.594970     0.169991     0.351678
 P     1.943600    -0.107964     0.499595
 C    -1.162477    -2.185737    -1.497111
 O    -1.869201    -2.877387    -2.092131
 H     2.911351    -0.106419     2.745981
 H     1.280149     0.527604     2.695067
 C     1.338917    -1.633784     2.799466
 H     2.014494    -2.454125     2.506017
 H     0.403304    -1.827539     2.245641
 C     1.093947    -1.672529     4.298936
 H     2.023178    -1.500174     4.866117
 H     0.374680    -0.894694     4.604418
 H     0.685085    -2.644306     4.614350
 C     4.469972    -1.360341     0.902596
 H     4.140193    -1.573101     1.920916
 C     4.072392    -0.409984    -1.276908
 O     3.213017     0.259396    -2.062121
 C     3.481522     0.414504    -3.425839
 H     4.380367     1.032159    -3.598016
 H     2.610316     0.924571    -3.855064
 H     3.609074    -0.561588    -3.924637
 C     5.726292    -1.805912     0.490924
 H     6.364943    -2.357119     1.183944
 C     5.330514    -0.851927    -1.695631
 H     5.671460    -0.662176    -2.713610
 C     6.150386    -1.547366    -0.807989
 H     7.130670    -1.892829    -1.145262
 C     1.257869     2.257333    -0.776993
 H     0.560672     1.594013    -1.299765
 C     3.005436     2.516321     0.871064
 O     3.792457     1.919876     1.788546
 C     4.833381     2.643052     2.381534
 H     5.532209     3.042375     1.626451
 H     5.373375     1.939277     3.027501
 H     4.456489     3.477827     2.998245
 C     1.342772     3.610250    -1.103339
 H     0.693558     4.025620    -1.876419
 C     3.090529     3.875817     0.551640
 H     3.806359     4.521179     1.061156
 C     2.257953     4.413103    -0.430866
 H     2.337789     5.476535    -0.670558
 H    -0.783728     0.398592     2.553267
 H    -0.388281     1.830741     1.609758
 C    -2.335044     1.892975     2.589601
 H    -3.091994     1.165476     2.922984
 H    -2.855583     2.564474     1.890157
 C    -1.814602     2.678749     3.784036
 H    -1.312877     2.018300     4.510200
 H    -1.081074     3.440690     3.473471
 H    -2.629009     3.196755     4.313523
 C    -1.976596     2.783405    -0.675655
 H    -1.368074     3.129204     0.160871
 C    -3.061473     1.013457    -1.894284
 O    -3.341372    -0.298686    -1.945075
 C    -4.086996    -0.819185    -3.008696
 H    -5.110282    -0.404293    -3.025781
 H    -4.130618    -1.902743    -2.849718
 H    -3.601228    -0.621792    -3.979728
 C    -2.419362     3.717562    -1.615580
 H    -2.162754     4.772494    -1.497115
 C    -3.510438     1.941120    -2.836923
 H    -4.114495     1.617387    -3.684818
 C    -3.185588     3.291410    -2.693511
 H    -3.540399     4.009185    -3.437221
 C    -2.731328    -2.137747     1.366172
 H    -1.700027    -2.489188     1.256194
 C    -4.350370    -0.379884     1.049248
 O    -4.592038     0.885902     0.659941
 C    -5.899525     1.376298     0.640475
 H    -6.554638     0.770237    -0.009843
 H    -5.841089     2.394940     0.235926
 H    -6.341186     1.415296     1.652209
 C    -3.718987    -2.982813     1.872146
 H    -3.463750    -3.996407     2.187274
 C    -5.348560    -1.229825     1.537373
 H    -6.380842    -0.885435     1.604400
 C    -5.028233    -2.523483     1.949191
 H    -5.820101    -3.172947     2.330824
