 100
scf done:    -2904.706089
 C    -1.553084    -3.064338    -2.219218
 H    -1.159382    -4.035039    -2.559679
 H    -2.426397    -3.322623    -1.594601
 C    -1.992538    -2.259600    -3.438322
 H    -1.137318    -1.986108    -4.077055
 H    -2.705418    -2.817450    -4.073323
 H    -2.488959    -1.313128    -3.162380
Ir    -0.064044    -1.982421    -1.120955
 C    -3.419193    -1.162108    -0.189918
 O    -1.289436    -0.064582     1.159315
 O    -1.905200     0.874027    -1.161941
 C     1.733173    -0.316752     1.524583
 O     3.056578    -1.122129    -0.810583
 O     1.422748     0.881932    -0.956808
 P     1.560214    -0.633474    -0.300643
 P    -1.697103    -0.567042    -0.364257
 C     1.044154    -3.494756    -1.179646
 O     1.666935    -4.454808    -1.077338
 H    -3.681367    -1.547525    -1.191275
 H    -4.070164    -0.292628    -0.014631
 C    -3.660443    -2.206850     0.869463
 C    -4.903383    -2.228852     1.516157
 H    -5.661444    -1.488730     1.243735
 C    -2.699149    -3.155984     1.236256
 H    -1.719823    -3.151786     0.744086
 C    -5.182097    -3.172654     2.501553
 H    -6.158502    -3.172391     2.992201
 C    -2.976280    -4.096880     2.226427
 H    -2.210204    -4.825751     2.501570
 C    -4.215825    -4.111013     2.862232
 H    -4.429078    -4.849894     3.638314
 C    -1.915950     0.919657     1.884691
 C    -3.017517     0.624421     2.684251
 H    -3.392028    -0.399104     2.730951
 C    -1.407574     2.216452     1.837766
 H    -0.546210     2.431475     1.204958
 C    -3.626499     1.646545     3.409809
 H    -4.496847     1.410569     4.028353
 C    -2.024312     3.223081     2.573478
 H    -1.623076     4.238948     2.519356
 C    -3.148635     2.961805     3.367256
 C    -3.794579     4.049955     4.174774
 H    -3.754011     5.017350     3.652947
 H    -3.282130     4.180516     5.142613
 H    -4.848010     3.821327     4.390904
 C    -3.058657     1.500436    -1.565149
 C    -3.866204     2.199952    -0.669879
 H    -3.600008     2.242853     0.386730
 C    -3.382976     1.472964    -2.922263
 H    -2.726359     0.938091    -3.610735
 C    -5.005587     2.851137    -1.140905
 H    -5.632442     3.396413    -0.430093
 C    -4.521376     2.130888    -3.374026
 H    -4.764176     2.102544    -4.439961
 C    -5.359159     2.828140    -2.493181
 C    -6.594668     3.519147    -2.992683
 H    -7.343073     2.791000    -3.345600
 H    -6.367662     4.184419    -3.840164
 H    -7.064323     4.123914    -2.204399
 H     0.832723    -0.801746     1.929151
 H     1.618731     0.760623     1.712508
 C     2.970095    -0.849418     2.178919
 C     3.857485     0.008940     2.836680
 H     3.637423     1.079032     2.874751
 C     3.261660    -2.220050     2.148313
 H     2.581018    -2.906694     1.637933
 C     5.015246    -0.483011     3.437097
 H     5.696559     0.203993     3.944838
 C     4.420096    -2.712699     2.742232
 H     4.635698    -3.782913     2.699819
 C     5.304180    -1.845274     3.386329
 H     6.213601    -2.233183     3.851146
 C     4.152634    -0.333100    -1.050678
 C     5.268591    -0.427899    -0.223586
 H     5.259801    -1.125503     0.613882
 C     4.163497     0.531735    -2.147228
 H     3.287425     0.581937    -2.794849
 C     6.378854     0.375659    -0.477554
 H     7.247722     0.299993     0.182039
 C     5.277467     1.329038    -2.381022
 H     5.270403     2.014395    -3.233182
 C     6.403028     1.274941    -1.548011
 C     7.597415     2.144644    -1.814913
 H     8.352847     2.044933    -1.022869
 H     7.313150     3.206724    -1.879986
 H     8.078565     1.880427    -2.770611
 C     1.694788     2.132972    -0.485901
 C     2.849697     2.458478     0.225831
 H     3.605747     1.699391     0.431940
 C     0.756187     3.124351    -0.780929
 H    -0.138901     2.837604    -1.335831
 C     3.040933     3.770805     0.655091
 H     3.948747     4.012651     1.214803
 C     0.969797     4.429639    -0.351788
 H     0.223987     5.194512    -0.586444
 C     2.112781     4.779806     0.379379
 C     2.347326     6.196397     0.817862
 H     3.034825     6.245044     1.674443
 H     1.407565     6.690398     1.106471
 H     2.792068     6.795231     0.005355
