 110
scf done:    -2387.507262
 C     0.981899    -2.841275    -1.584361
 H     0.897800    -3.082946    -2.657584
 H     2.053372    -2.615878    -1.440931
 C     0.632832    -4.076471    -0.757152
 H    -0.401740    -4.409190    -0.938737
 H     1.295277    -4.933872    -0.982041
 H     0.710550    -3.886360     0.327212
Ir    -0.337785    -1.225177    -1.063238
 C     2.458316    -1.230134     1.048535
 C     2.799450     0.040845    -1.656421
 C     1.602825     1.490386     0.500503
 C    -2.656048     1.526828    -1.254516
 C    -3.558177    -0.871569     0.042911
 C    -1.773896     0.915747     1.456071
 P    -2.021077     0.123371    -0.193746
 P     1.623846    -0.188942    -0.253745
 C    -1.558239    -1.975609    -2.233618
 O    -2.269913    -2.382319    -3.048552
 H     1.725573    -1.236762     1.871121
 H     2.457492    -2.248521     0.638209
 C     3.806495    -0.826795     1.564014
 C     3.898756     0.155997     2.557709
 H     2.978790     0.581767     2.967535
 C     4.991415    -1.412418     1.068613
 C     4.956286    -2.498947     0.033128
 H     4.496231    -2.158213    -0.906943
 H     4.369710    -3.367557     0.372524
 H     5.970124    -2.850687    -0.200917
 C     5.129626     0.596905     3.035611
 H     5.171986     1.368067     3.808285
 C     6.220295    -0.959786     1.560624
 H     7.138809    -1.410366     1.174485
 C     6.299963     0.041441     2.526074
 H     7.275075     0.375409     2.888111
 H     3.041580    -0.969742    -2.018532
 H     2.186550     0.485233    -2.458529
 C     4.061273     0.860109    -1.413604
 H     3.795229     1.916756    -1.241551
 H     4.568585     0.527108    -0.495674
 C     5.042935     0.779430    -2.574581
 H     4.550670     1.119739    -3.503923
 H     5.310427    -0.278791    -2.749968
 C     6.313116     1.585441    -2.341389
 H     6.044099     2.643178    -2.171352
 H     6.784490     1.244498    -1.402432
 C     7.310439     1.487633    -3.484147
 H     8.216909     2.079295    -3.285359
 H     6.874744     1.853497    -4.427873
 H     7.624249     0.444634    -3.651712
 H     1.006992     1.416571     1.422638
 H     2.624877     1.762856     0.808327
 C     1.012647     2.538689    -0.431510
 H     1.706457     2.729245    -1.267773
 H     0.102632     2.127431    -0.898959
 C     0.685415     3.854217     0.260043
 H     1.597711     4.263679     0.730083
 H    -0.012240     3.662689     1.097246
 C     0.078520     4.894381    -0.671430
 H     0.799104     5.123362    -1.475959
 H    -0.801358     4.458693    -1.177429
 C    -0.329824     6.175105     0.037284
 H    -0.753152     6.909736    -0.663814
 H     0.529841     6.647901     0.538838
 H    -1.092314     5.977317     0.808368
 H    -1.776101     2.156822    -1.451265
 H    -2.900765     1.048294    -2.213697
 C    -3.785326     2.359102    -0.723338
 C    -3.504206     3.378162     0.197979
 H    -2.464851     3.562074     0.479739
 C    -5.123789     2.158786    -1.126277
 C    -5.496903     1.149723    -2.175112
 H    -5.294190     0.117891    -1.853500
 H    -4.934572     1.309585    -3.108964
 H    -6.566396     1.216895    -2.416453
 C    -4.508392     4.165157     0.752024
 H    -4.254778     4.951293     1.467200
 C    -6.123003     2.957704    -0.556632
 H    -7.159165     2.802442    -0.869907
 C    -5.831929     3.945809     0.379540
 H    -6.635814     4.552119     0.803443
 H    -4.354458    -0.232113     0.460695
 H    -3.866126    -1.147471    -0.979399
 C    -3.372135    -2.146088     0.857703
 H    -2.407444    -2.608435     0.579813
 H    -3.299478    -1.902298     1.930704
 C    -4.495477    -3.150983     0.647227
 H    -4.542851    -3.414188    -0.425240
 H    -5.467028    -2.679478     0.885124
 C    -4.331210    -4.420884     1.470106
 H    -3.353491    -4.876341     1.233023
 H    -4.284228    -4.155009     2.541326
 C    -5.439098    -5.436429     1.242690
 H    -5.292047    -6.342644     1.849731
 H    -5.483547    -5.747407     0.186525
 H    -6.424919    -5.017935     1.502827
 H    -1.148628     1.804516     1.275280
 H    -2.741376     1.290464     1.827831
 C    -1.094245     0.014241     2.478747
 H    -1.788960    -0.772168     2.812546
 H    -0.268475    -0.526802     1.984633
 C    -0.563573     0.765041     3.691899
 H    -1.396401     1.278551     4.205210
 H     0.114197     1.572960     3.356841
 C     0.174689    -0.127825     4.679547
 H    -0.511962    -0.912492     5.042344
 H     0.980744    -0.665044     4.147981
 C     0.763227     0.629505     5.858310
 H     1.286079    -0.043705     6.554060
 H    -0.019753     1.155641     6.427645
 H     1.489201     1.387923     5.522179
