 100
scf done:    -2456.438870
 C     1.356696    -3.837329     0.353006
 H     1.953713    -4.190874    -0.507863
 H     2.094920    -3.468440     1.085784
 C     0.627338    -5.019082     0.984657
 H    -0.035884    -5.526450     0.265719
 H     1.327991    -5.781496     1.373822
 H    -0.006379    -4.703292     1.829728
Ir     0.047600    -2.253441    -0.247914
 C     2.209465    -0.187696     1.855620
 C     3.372316    -1.543796    -0.478990
 C     1.734514     0.862993    -0.815699
 C    -1.929422    -0.000549    -2.196711
 C    -3.284524    -1.634717    -0.141417
 C    -1.675402     0.740502     0.665094
 P    -1.687073    -0.715752    -0.509912
 P     1.812938    -0.745464     0.144125
 C    -0.920353    -3.488908    -1.232048
 O    -1.430823    -4.194130    -1.993519
 H     3.074792     0.494532     1.824292
 H     1.352903     0.430521     2.172184
 C     2.418393    -1.315853     2.855950
 H     3.264067    -1.949813     2.538504
 H     1.535440    -1.976019     2.848884
 C     2.676970    -0.797141     4.262045
 H     3.574702    -0.158842     4.295152
 H     1.831143    -0.191391     4.624683
 H     2.826244    -1.622974     4.973854
 H     3.575993    -2.363736     0.224845
 H     3.059670    -2.027595    -1.415725
 C     4.587095    -0.700171    -0.695238
 C     4.999593    -0.382871    -1.995883
 H     4.426892    -0.758666    -2.848013
 C     5.350770    -0.228458     0.378464
 H     5.057353    -0.490934     1.398567
 C     6.143574     0.382788    -2.207150
 H     6.466284     0.609123    -3.226296
 C     6.485660     0.564452     0.187501
 C     7.234470     1.118321     1.363578
 H     6.758694     2.049097     1.716445
 H     7.238751     0.414589     2.208775
 H     8.276662     1.356228     1.107267
 C     6.880124     0.856411    -1.123914
 H     7.779175     1.454694    -1.295685
 H     2.215093     0.648399    -1.782132
 H     0.668001     1.010189    -1.032041
 C     2.317859     2.100577    -0.189275
 C     1.592289     2.827100     0.764634
 H     0.588207     2.510211     1.052436
 C     3.589391     2.564792    -0.544919
 H     4.166103     2.015201    -1.292009
 C     2.134159     3.965328     1.353833
 H     1.554086     4.516647     2.097751
 C     4.144997     3.714518     0.027708
 C     5.487958     4.219880    -0.414244
 H     6.103796     3.408568    -0.825323
 H     5.378578     4.984007    -1.202053
 H     6.036275     4.688264     0.416665
 C     3.404639     4.404739     0.993650
 H     3.824942     5.300851     1.458750
 H    -1.138263     0.760898    -2.302421
 H    -1.631551    -0.815355    -2.877908
 C    -3.278121     0.575801    -2.610604
 H    -3.669336     1.242944    -1.828102
 H    -4.003323    -0.248580    -2.708725
 C    -3.194505     1.332355    -3.927215
 H    -2.525971     2.202987    -3.834382
 H    -2.803466     0.694059    -4.735904
 H    -4.181860     1.704767    -4.240214
 H    -3.621700    -2.032609    -1.111243
 H    -2.938457    -2.500226     0.441360
 C    -4.399388    -0.958275     0.595302
 C    -4.386891    -0.933498     1.997882
 H    -3.568112    -1.417968     2.537346
 C    -5.479512    -0.367187    -0.065800
 H    -5.513064    -0.391855    -1.157062
 C    -5.413512    -0.313337     2.703899
 H    -5.391290    -0.299673     3.796294
 C    -6.522718     0.257549     0.625418
 C    -7.671225     0.865570    -0.125885
 H    -7.321264     1.419081    -1.010219
 H    -8.365039     0.086832    -0.483280
 H    -8.246684     1.557009     0.505574
 C    -6.473548     0.283865     2.023139
 H    -7.277738     0.769049     2.583056
 H    -2.105965     0.364697     1.604763
 H    -0.608034     0.908464     0.864247
 C    -2.338672     2.018824     0.242786
 C    -1.703337     2.895514    -0.645615
 H    -0.695980     2.679717    -1.007693
 C    -3.611091     2.361041     0.717739
 H    -4.108631     1.698818     1.429008
 C    -2.344637     4.055488    -1.073906
 H    -1.836917     4.728138    -1.769475
 C    -4.267234     3.522188     0.300989
 C    -5.634281     3.863508     0.819837
 H    -5.956187     3.152625     1.592639
 H    -5.656380     4.876687     1.250810
 H    -6.382470     3.840554     0.011157
 C    -3.621281     4.362997    -0.614314
 H    -4.118823     5.275153    -0.955686
