 104
scf done:    -3751.827277
 C    -1.698682    -3.301921    -2.302008
 H    -1.236546    -4.254984    -2.602251
 H    -2.496287    -3.589664    -1.598042
 C    -2.286793    -2.626306    -3.537234
 H    -1.513692    -2.433689    -4.297664
 H    -3.068308    -3.243445    -4.018821
 H    -2.746404    -1.647171    -3.312047
Ir    -0.269335    -1.970240    -1.434297
 O    -2.036572     0.700064    -0.481277
 C    -3.695992    -1.561253    -0.388224
 C    -1.630590    -1.108005     1.608720
 O     1.546298    -0.106475     0.712806
 C     2.941490    -0.710736    -1.685198
 C     0.882202     1.376946    -1.529643
 P     1.275292    -0.342285    -0.940088
 P    -1.957355    -0.952256    -0.204502
 C     1.029115    -3.264166    -1.713037
 O     1.807224    -4.118156    -1.698677
 C    -2.875299     1.699080    -0.085875
 C    -3.313391     2.577748    -1.078710
 H    -2.997051     2.403735    -2.108617
 C    -3.234111     1.918102     1.244336
 H    -2.866868     1.261664     2.031313
 C    -4.155317     3.635423    -0.758395
 H    -4.514672     4.315985    -1.531703
 C    -4.092480     2.964335     1.565897
 H    -4.408356     3.120079     2.598169
 C    -4.559105     3.810459     0.563496
Cl    -5.678230     5.075066     0.960738
 H    -3.852386    -1.679572    -1.469803
 H    -3.648434    -2.579383     0.031482
 C    -4.805537    -0.759078     0.224946
 C    -5.168400    -0.900363     1.567921
 H    -4.671403    -1.643134     2.194124
 C    -5.505097     0.169199    -0.557090
 H    -5.241904     0.274497    -1.613476
 C    -6.174393    -0.104956     2.114363
 H    -6.446858    -0.223899     3.165898
 C    -6.512483     0.977526    -0.028074
 C    -7.242194     1.971610    -0.882377
 H    -6.789952     2.052764    -1.880361
 H    -8.297745     1.682335    -1.011790
 H    -7.230907     2.971052    -0.420918
 C    -6.832553     0.834437     1.329055
 H    -7.611895     1.463808     1.767214
 H    -0.775957    -0.440771     1.801021
 H    -2.504786    -0.747092     2.168783
 C    -1.295697    -2.528796     1.971181
 C    -2.279873    -3.428294     2.395224
 H    -3.310196    -3.092801     2.531717
 C     0.017087    -2.987558     1.831229
 H     0.779074    -2.276565     1.509468
 C    -1.951641    -4.756080     2.657123
 H    -2.725842    -5.451426     2.989945
 C     0.364587    -4.317225     2.087993
 C     1.781362    -4.777007     1.902941
 H     2.477889    -4.172348     2.505109
 H     1.907082    -5.827817     2.198627
 H     2.086534    -4.687109     0.847900
 C    -0.640686    -5.198674     2.498467
 H    -0.390765    -6.243607     2.700931
 C     2.734572    -0.046033     1.374195
 C     3.179098     1.170997     1.894459
 H     2.577434     2.067210     1.748205
 C     3.485705    -1.207378     1.577672
 H     3.117813    -2.162561     1.198744
 C     4.392560     1.235257     2.569640
 H     4.756107     2.186512     2.961378
 C     4.704974    -1.145631     2.248203
 H     5.306490    -2.044239     2.393293
 C     5.160546     0.081504     2.726443
Cl     6.704664     0.179096     3.509855
 H     3.373100    -1.521738    -1.079339
 H     2.639193    -1.179204    -2.635052
 C     3.940045     0.375395    -1.952407
 C     3.937680     1.033326    -3.189016
 H     3.218819     0.739114    -3.958996
 C     4.905636     0.738586    -1.007296
 H     4.947242     0.210458    -0.054755
 C     4.858572     2.045528    -3.451906
 H     4.851125     2.547822    -4.422214
 C     5.829785     1.758129    -1.247870
 C     6.817688     2.157324    -0.191004
 H     6.946328     1.370698     0.565257
 H     7.801937     2.389959    -0.623840
 H     6.472026     3.061248     0.338063
 C     5.792244     2.412630    -2.486120
 H     6.513115     3.206791    -2.699965
 H     1.361994     1.474559    -2.514965
 H    -0.205541     1.364467    -1.680997
 C     1.265004     2.511107    -0.623838
 C     0.433936     2.853405     0.449071
 H    -0.484884     2.292815     0.616514
 C     2.440228     3.244460    -0.820970
 H     3.096813     2.989012    -1.654509
 C     0.777087     3.900982     1.299693
 H     0.116836     4.159866     2.131063
 C     2.802741     4.295560     0.027396
 C     4.064547     5.073714    -0.211302
 H     4.663695     5.157085     0.708911
 H     4.684413     4.597126    -0.982964
 H     3.841067     6.100690    -0.543445
 C     1.955943     4.614945     1.096140
 H     2.221580     5.433710     1.770922
