 102
scf done:    -2682.507699
 C     1.882385    -1.945678    -2.282473
 H     1.647270    -2.070149    -3.352502
 H     2.818193    -1.367290    -2.263688
 C     2.098583    -3.324057    -1.665511
 H     1.193171    -3.948699    -1.735861
 H     2.914206    -3.878105    -2.167034
 H     2.359452    -3.274085    -0.594859
Ir     0.321818    -0.897869    -1.267767
 C     1.928692     0.303524     1.783862
 C     3.680959     0.325354    -0.506825
 C     1.519815     2.192170    -0.406677
 C    -2.549738     1.074735    -1.333070
 C    -2.771179    -1.353495     0.301934
 C    -1.505372     0.953348     1.367862
 P    -1.582830    -0.038947    -0.177222
 P     1.901735     0.429729    -0.084245
 C    -0.751363    -1.495220    -2.642898
 O    -1.388502    -1.758785    -3.570579
 H     2.383901     1.219122     2.183865
 H     0.873876     0.293357     2.093003
 C     2.685809    -0.888794     2.286924
 C     3.998740    -0.708360     2.737401
 H     4.418226     0.301203     2.744228
 C     2.138496    -2.189970     2.263776
 C     0.732698    -2.441440     1.818380
 H     0.577089    -2.164261     0.751009
 H     0.013738    -1.843549     2.397468
 H     0.461100    -3.500136     1.924188
 C     4.784199    -1.781489     3.145867
 H     5.807837    -1.611608     3.487142
 C     2.946233    -3.259891     2.667473
 H     2.527365    -4.269552     2.642210
 C     4.256528    -3.068941     3.099613
 H     4.860210    -3.926398     3.406615
 C     4.348304    -0.900704    -0.362216
 H     3.810062    -1.779144    -0.003686
 C     4.402397     1.419154    -0.994302
 H     3.908229     2.381954    -1.136333
 C     5.697526    -1.014009    -0.670929
 H     6.192470    -1.980248    -0.540467
 C     5.754966     1.295058    -1.307746
 H     6.297820     2.165826    -1.685953
 C     6.428270     0.080878    -1.149688
 C     7.879541    -0.061296    -1.502575
 H     8.346687     0.914642    -1.695451
 H     8.441214    -0.556712    -0.695678
 H     8.005757    -0.677243    -2.408046
 C     1.882404     3.236211     0.447954
 H     2.436422     3.036116     1.367141
 C     0.825986     2.501642    -1.584286
 H     0.541739     1.675658    -2.246457
 C     1.526343     4.550414     0.152121
 H     1.806316     5.350646     0.842893
 C     0.476026     3.815543    -1.876580
 H    -0.075172     4.032364    -2.796144
 C     0.810087     4.864361    -1.008230
 C     0.428090     6.278491    -1.331549
 H     1.026166     6.663495    -2.173638
 H    -0.629102     6.349034    -1.629313
 H     0.588608     6.947859    -0.474992
 H    -1.970435     2.010103    -1.358293
 H    -2.424872     0.613299    -2.321263
 C    -3.988095     1.325994    -1.010954
 C    -4.337945     2.354528    -0.126926
 H    -3.551745     2.992305     0.282509
 C    -5.002602     0.505830    -1.551226
 C    -4.686764    -0.606313    -2.507525
 H    -4.046907    -1.371363    -2.040904
 H    -4.149069    -0.245635    -3.398628
 H    -5.605961    -1.101658    -2.848401
 C    -5.660124     2.565651     0.253332
 H    -5.906123     3.369871     0.950777
 C    -6.326695     0.738765    -1.164503
 H    -7.113518     0.102598    -1.579108
 C    -6.661395     1.747991    -0.265304
 H    -7.704580     1.900436     0.022002
 C    -2.483088    -2.685521    -0.012796
 H    -1.536674    -2.917405    -0.508799
 C    -3.975942    -1.069609     0.965403
 H    -4.217983    -0.044625     1.252037
 C    -3.383940    -3.702072     0.298312
 H    -3.135981    -4.735407     0.040963
 C    -4.871189    -2.088013     1.267386
 H    -5.808149    -1.840497     1.774188
 C    -4.597437    -3.421672     0.932613
 C    -5.587126    -4.506234     1.240155
 H    -6.454797    -4.448074     0.562397
 H    -5.142220    -5.504514     1.125535
 H    -5.973998    -4.417592     2.266754
 C    -1.650249     0.340432     2.621761
 H    -1.928471    -0.713714     2.680426
 C    -1.163794     2.310520     1.341303
 H    -1.026903     2.830371     0.391694
 C    -1.445730     1.054539     3.797376
 H    -1.558455     0.544459     4.758232
 C    -0.967878     3.022535     2.522053
 H    -0.693938     4.079394     2.463252
 C    -1.098260     2.410966     3.772253
 C    -0.897760     3.179418     5.044796
 H    -0.308043     2.602631     5.773159
 H    -0.381662     4.132771     4.863619
 H    -1.864402     3.410916     5.522148
