  56
scf done:    -1680.431017
 C    -1.764429    -2.655406     0.417474
 H    -1.537459    -3.393333     1.206424
 H    -2.598090    -2.063304     0.839052
 C    -2.262177    -3.390386    -0.824974
 H    -1.499548    -4.080107    -1.219874
 H    -3.170123    -3.989504    -0.623673
 H    -2.507117    -2.700649    -1.650243
Ir    -0.003775    -1.471786     0.038443
 C    -2.975911     0.253024    -0.769176
 C    -2.083252     0.458421     2.023740
 C    -0.959084     2.113008     0.032155
 C     2.573582     0.782738     0.930344
 C     3.376446    -1.302542    -0.878028
 C     1.897541     0.857833    -1.902431
 P     1.914367    -0.278146    -0.458986
 P    -1.463169     0.368829     0.305511
 C     0.918214    -3.076779     0.092113
 O     1.472281    -4.084880     0.172973
 H    -3.328855    -0.783289    -0.675751
 H    -2.602343     0.368468    -1.798651
 C    -4.065436     1.232558    -0.464086
 C    -4.127684     2.475333    -1.107802
 H    -3.389288     2.718321    -1.876922
 C    -5.039112     0.934986     0.499186
 H    -5.015693    -0.036957     0.999734
 C    -5.124063     3.396975    -0.792021
 H    -5.157205     4.358443    -1.310243
 C    -6.036219     1.854068     0.816921
 H    -6.788055     1.599723     1.567936
 C    -6.080097     3.091189     0.175077
 H    -6.863009     3.811873     0.422132
 H    -2.504423    -0.512886     2.314943
 H    -1.223854     0.664889     2.677760
 H    -2.839384     1.248458     2.142235
 H    -1.770006     2.801276     0.312464
 H    -0.071259     2.341952     0.637844
 H    -0.711106     2.271027    -1.026592
 H     2.746403     0.074437     1.755409
 H     1.735333     1.422274     1.244218
 C     3.792777     1.595371     0.630841
 C     3.681051     2.885675     0.094693
 H     2.687789     3.314142    -0.066729
 C     5.077391     1.077120     0.843367
 H     5.186793     0.079036     1.276071
 C     4.813257     3.629829    -0.228114
 H     4.701801     4.635197    -0.641611
 C     6.212089     1.818508     0.521006
 H     7.203808     1.395461     0.698796
 C     6.084781     3.097088    -0.019631
 H     6.973949     3.679809    -0.270967
 H     3.606729    -1.976487    -0.040440
 H     3.121637    -1.923396    -1.749171
 H     4.258445    -0.687988    -1.110954
 H     1.589339     0.272742    -2.781101
 H     1.164792     1.661124    -1.752860
 H     2.886489     1.303931    -2.084910
