  94
scf done:    -4664.026106
 C     0.744446    -3.861869     0.933402
 H     0.209523    -4.787549     0.668364
 H     1.593350    -3.836217     0.226185
 C     1.260170    -3.956649     2.365437
 H     0.433448    -4.056256     3.085996
 H     1.920538    -4.832061     2.509678
 H     1.834406    -3.062655     2.654823
Ir    -0.547005    -2.144167     0.713253
 C     1.953110    -1.622230    -1.599512
 O     1.249638     0.580579    -0.065602
 O     2.665087    -1.240875     1.059379
 C    -1.546115     0.931216     2.084967
 O    -1.712031     0.602853    -0.682932
 O    -3.461440    -0.437934     0.911224
 P    -1.815441    -0.273701     0.721982
 P     1.357582    -1.073656     0.063025
 C    -1.948654    -3.404583     0.809465
 O    -2.723883    -4.247923     0.795588
 H     2.700598    -2.406277    -1.405662
 H     1.074516    -2.124473    -2.028986
 C     2.501798    -0.565415    -2.510613
 C     3.880250    -0.338312    -2.572415
 H     4.550178    -0.951158    -1.965939
 C     1.631646     0.200884    -3.314692
 C     0.154888    -0.055358    -3.319534
 H    -0.280805    -0.005516    -2.311014
 H    -0.071159    -1.058431    -3.718873
 H    -0.371445     0.677103    -3.946364
 C     4.410867     0.655837    -3.390062
 H     5.490588     0.818021    -3.418847
 C     2.182411     1.196179    -4.130191
 H     1.512903     1.794130    -4.754461
 C     3.555938     1.433296    -4.167170
 H     3.956469     2.218084    -4.813290
 C     2.164808     1.519307     0.323017
 C     2.759790     2.330159    -0.641455
 H     2.536698     2.162355    -1.695847
 C     2.446698     1.709131     1.677499
 H     1.984395     1.059132     2.421818
 C     3.644184     3.331668    -0.252220
 H     4.120222     3.968362    -0.999349
 C     3.332191     2.708257     2.068870
 H     3.564619     2.862938     3.123509
 C     3.929660     3.515784     1.100591
Cl     5.035200     4.757146     1.583648
 C     3.976822    -1.503636     0.751302
 C     4.909359    -0.468078     0.690737
 H     4.590882     0.560320     0.854427
 C     4.381298    -2.825116     0.559189
 H     3.645889    -3.627160     0.646510
 C     6.242574    -0.752967     0.412447
 H     6.978325     0.050871     0.359755
 C     5.712450    -3.111670     0.270458
 H     6.036989    -4.141238     0.112836
 C     6.638340    -2.071915     0.192012
Cl     8.293745    -2.422103    -0.170834
 H    -1.651815     0.296362     2.980939
 H    -0.477977     1.176553     2.006740
 C    -2.411772     2.159251     2.181180
 C    -3.761401     2.021780     2.529559
 H    -4.151833     1.025663     2.741924
 C    -1.891040     3.447595     1.937123
 C    -0.433882     3.678530     1.667822
 H    -0.054274     3.053377     0.849161
 H     0.178458     3.453690     2.556335
 H    -0.247449     4.725617     1.394057
 C    -4.611062     3.121528     2.578835
 H    -5.662281     2.986734     2.844305
 C    -2.764363     4.540034     1.979435
 H    -2.369847     5.535797     1.761052
 C    -4.113172     4.388427     2.284782
 H    -4.769921     5.261316     2.302665
 C    -2.165624     1.864815    -0.964532
 C    -1.238945     2.786105    -1.450286
 H    -0.199202     2.477621    -1.569032
 C    -3.509531     2.215787    -0.827913
 H    -4.229291     1.484716    -0.461721
 C    -1.642354     4.084609    -1.746402
 H    -0.923660     4.822643    -2.105824
 C    -3.911871     3.513755    -1.117244
 H    -4.952078     3.811947    -0.982393
 C    -2.974282     4.446470    -1.559023
Cl    -3.470448     6.079897    -1.860435
 C    -4.213143    -1.340965     0.214902
 C    -5.272315    -1.947726     0.890105
 H    -5.446696    -1.694070     1.937072
 C    -3.960640    -1.650265    -1.123552
 H    -3.136003    -1.167594    -1.649752
 C    -6.074569    -2.874689     0.236113
 H    -6.900435    -3.361630     0.756673
 C    -4.759085    -2.585321    -1.776182
 H    -4.566514    -2.843647    -2.818445
 C    -5.810210    -3.195222    -1.095614
Cl    -6.799673    -4.360841    -1.909417
