  76
scf done:    -2985.445544
 C    -3.868728     0.096558    -0.683183
 H    -4.517389    -0.296230     0.121307
 H    -3.810463     1.185854    -0.499185
 C    -4.542830    -0.124635    -2.032105
 H    -4.762920    -1.189099    -2.211520
 H    -5.500034     0.422778    -2.111609
 H    -3.907717     0.213644    -2.866986
Ir    -1.894130    -0.694369    -0.529652
 O    -0.320550     1.670167     1.546029
 C    -2.962753     1.530901     2.060995
 C    -1.061508    -0.527416     2.793540
 O     1.103318    -1.697612     0.705566
 C     0.727997    -2.707622    -1.784271
 C     1.385749     0.083284    -1.437464
 P     0.335777    -1.252762    -0.738758
 P    -1.575398     0.530655     1.402698
 C    -2.471858    -2.270033    -1.326657
 O    -2.818082    -3.331141    -1.623451
 C     0.040853     2.497784     0.535182
 C    -0.719919     2.687039    -0.623905
 H    -1.686293     2.190555    -0.743034
 C     1.270911     3.152794     0.666750
 H     1.841688     3.019903     1.587704
 C    -0.221421     3.468679    -1.663801
 H    -0.801171     3.596849    -2.579249
 C     1.766165     3.935969    -0.368309
 H     2.734654     4.430187    -0.276814
 C     1.026335     4.073801    -1.543395
Cl     1.671652     4.994467    -2.862495
 H    -3.173632     2.301607     1.300709
 H    -3.848101     0.873762     2.061817
 C    -2.737608     2.174355     3.422743
 H    -1.783640     2.726419     3.409829
 H    -2.627229     1.390180     4.190114
 C    -3.872766     3.107820     3.814871
 H    -3.981843     3.929433     3.089228
 H    -4.835285     2.573536     3.855103
 H    -3.698299     3.557379     4.804077
 H    -0.141943    -1.024710     2.449949
 H    -0.802477     0.118459     3.647911
 C    -2.114685    -1.567198     3.158788
 H    -2.401194    -2.111586     2.242882
 H    -3.031550    -1.068095     3.518075
 C    -1.616086    -2.542909     4.212676
 H    -0.725895    -3.084610     3.856214
 H    -1.337365    -2.023397     5.143578
 H    -2.385163    -3.288921     4.463153
 C     2.411192    -1.476339     1.007288
 C     2.796182    -0.243728     1.540761
 H     2.033454     0.519471     1.706632
 C     3.358316    -2.487157     0.829916
 H     3.037177    -3.455446     0.441823
 C     4.130676    -0.004679     1.851347
 H     4.444624     0.957436     2.259540
 C     4.693860    -2.253839     1.144954
 H     5.444096    -3.033782     1.005476
 C     5.076674    -1.008459     1.642851
Cl     6.740735    -0.710524     2.021479
 H     1.810453    -2.910350    -1.730921
 H     0.212915    -3.557525    -1.306043
 C     0.268245    -2.552296    -3.231120
 H     0.913415    -1.821506    -3.746644
 H    -0.745963    -2.119279    -3.250946
 C     0.269862    -3.870711    -3.988271
 H     1.268625    -4.335851    -3.986854
 H    -0.434034    -4.583404    -3.530632
 H    -0.032757    -3.729513    -5.036656
 H     0.739136     0.548444    -2.201476
 H     1.471145     0.846523    -0.649514
 C     2.761670    -0.222523    -2.020328
 H     2.659704    -0.879322    -2.899384
 H     3.374282    -0.777231    -1.293721
 C     3.485452     1.057135    -2.413794
 H     2.895823     1.655914    -3.126319
 H     3.665494     1.690672    -1.531106
 H     4.460058     0.841065    -2.876653
