 108
scf done:    -2761.072027
 C     0.646933    -3.624985    -0.145219
 H     0.432520    -4.377471    -0.922377
 H     1.708690    -3.371041    -0.307586
 C     0.483303    -4.272318     1.227230
 H    -0.543844    -4.640693     1.377280
 H     1.163287    -5.132438     1.372698
 H     0.678368    -3.567605     2.054598
Ir    -0.645293    -1.924492    -0.391845
 C     1.268426     1.176096     0.164082
 C     2.532153    -1.259087     1.200906
 C     2.221297    -0.926742    -1.780148
 C    -1.831335     1.495325    -1.095639
 C    -3.764677    -0.653419    -1.490784
 C    -2.951747     0.121102     1.212187
 P    -2.243539    -0.227276    -0.469496
 P     1.375455    -0.661857    -0.137023
 C    -1.890708    -3.175377    -0.907310
 O    -2.626763    -3.986674    -1.276990
 H     0.405505     1.253537     0.843497
 H     0.970205     1.609455    -0.800992
 C     2.417020     1.941288     0.753163
 C     3.363243     2.591922    -0.047127
 H     3.279783     2.542633    -1.132351
 C     2.530000     2.063574     2.145102
 H     1.779762     1.590211     2.782312
 C     4.406112     3.314627     0.527879
 H     5.130877     3.813617    -0.120482
 C     3.572380     2.786286     2.722737
 H     3.638451     2.864632     3.810757
 C     4.521297     3.411026     1.914615
 H     5.338916     3.980477     2.363093
 H     2.378482    -0.569406     2.042746
 H     2.126928    -2.231805     1.507316
 C     3.991898    -1.390509     0.873386
 C     4.471265    -2.550966     0.249599
 H     3.780551    -3.367090     0.020300
 C     4.904824    -0.378715     1.187781
 H     4.548093     0.526093     1.682211
 C     5.820350    -2.673264    -0.072145
 H     6.180132    -3.579555    -0.565208
 C     6.265735    -0.490510     0.882842
 C     7.220425     0.602072     1.267274
 H     6.744103     1.589822     1.188689
 H     7.551412     0.483126     2.312570
 H     8.120110     0.594075     0.635228
 C     6.712541    -1.647721     0.235798
 H     7.770600    -1.749552    -0.021174
 H     2.821992    -1.838750    -1.653774
 H     1.385083    -1.190944    -2.443689
 C     3.037318     0.177273    -2.375213
 C     2.421682     1.159226    -3.162665
 H     1.345629     1.104154    -3.351464
 C     4.419842     0.244236    -2.179311
 H     4.910368    -0.526074    -1.581571
 C     3.175807     2.189884    -3.719147
 H     2.689076     2.948708    -4.336671
 C     5.190260     1.277128    -2.721793
 C     6.661881     1.352396    -2.439206
 H     7.094384     0.351208    -2.301255
 H     7.206561     1.862695    -3.246685
 H     6.846620     1.912564    -1.507308
 C     4.550278     2.252572    -3.495827
 H     5.136362     3.064665    -3.934885
 H    -1.242010     1.332792    -2.011287
 H    -1.151656     1.914680    -0.342885
 C    -2.969093     2.431792    -1.348612
 C    -3.495108     3.226044    -0.320431
 H    -3.029156     3.198574     0.666426
 C    -3.555055     2.530361    -2.619128
 H    -3.138967     1.950658    -3.448020
 C    -4.590933     4.057017    -0.540791
 H    -4.983271     4.663855     0.278816
 C    -4.651600     3.359886    -2.844389
 H    -5.092995     3.414677    -3.842255
 C    -5.181522     4.119810    -1.802544
 H    -6.042828     4.768652    -1.976592
 H    -3.850345     0.108633    -2.276430
 H    -3.542063    -1.606916    -1.984942
 C    -5.050517    -0.745050    -0.726754
 C    -5.448101    -1.953337    -0.143125
 H    -4.840066    -2.850264    -0.287199
 C    -5.852475     0.387833    -0.544735
 H    -5.550912     1.332996    -1.003167
 C    -6.615230    -2.010398     0.616748
 H    -6.918502    -2.956354     1.072319
 C    -7.025691     0.345254     0.212548
 C    -7.878423     1.571187     0.370203
 H    -7.308496     2.484527     0.147108
 H    -8.740554     1.543150    -0.316993
 H    -8.280943     1.653858     1.391014
 C    -7.394869    -0.871527     0.799757
 H    -8.305651    -0.925936     1.402779
 H    -3.655341     0.964537     1.162749
 H    -3.550566    -0.771610     1.449735
 C    -1.896736     0.326167     2.259316
 C    -1.118325    -0.755127     2.698908
 H    -1.267616    -1.740045     2.243514
 C    -1.674461     1.582448     2.832168
 H    -2.286000     2.430956     2.511550
 C    -0.168080    -0.573692     3.698522
 H     0.419280    -1.427297     4.046343
 C    -0.716099     1.786093     3.833467
 C    -0.467919     3.155754     4.394377
 H    -1.356398     3.797404     4.306565
 H    -0.179900     3.111846     5.454923
 H     0.353575     3.655255     3.852302
 C     0.028538     0.684596     4.268159
 H     0.768639     0.813264     5.063291
