  76
scf done:    -1990.857137
 C    -1.797979    -2.425573     1.006479
 H    -1.528038    -3.180404     1.762927
 H    -2.627187    -1.844956     1.439901
 C    -2.275975    -3.132039    -0.258497
 H    -1.474479    -3.722789    -0.731287
 H    -3.110162    -3.828234    -0.050373
 H    -2.639713    -2.415319    -1.011753
Ir    -0.154066    -1.107442     0.592831
 C    -1.556625     1.180412    -1.780832
 O    -3.258148    -0.008124    -0.011723
 O    -1.690746     1.892687     0.756714
 C     2.827182     0.518470     1.472791
 O     2.749752    -0.525030    -0.948264
 O     1.388157     1.636088    -0.602898
 P     1.671149     0.162378     0.090847
 P    -1.708974     0.501515    -0.101124
 C     0.919382    -2.432230     1.349547
 O     1.563817    -3.240363     1.856128
 H    -2.381559     1.888013    -1.967247
 H    -0.621771     1.759006    -1.753057
 C    -1.486572     0.083371    -2.835951
 H    -2.399634    -0.533588    -2.798555
 H    -0.662724    -0.602694    -2.573489
 C    -1.287969     0.628828    -4.240477
 H    -2.126637     1.277448    -4.541155
 H    -0.368785     1.232251    -4.308028
 H    -1.211696    -0.182360    -4.980153
 C    -4.389252     0.837739    -0.244167
 H    -4.050117     1.889025    -0.270441
 C    -5.336678     0.660670     0.924836
 H    -4.850475     0.951262     1.865456
 H    -5.642360    -0.393464     1.005772
 H    -6.237362     1.278422     0.791808
 C    -5.028618     0.466156    -1.568326
 H    -4.341881     0.631766    -2.410076
 H    -5.313045    -0.597004    -1.562387
 H    -5.933209     1.067946    -1.742409
 C    -1.162759     1.907720     2.093114
 H    -0.448741     1.062872     2.172571
 C    -2.279070     1.693353     3.092711
 H    -2.745149     0.708490     2.942722
 H    -3.051137     2.471868     2.987659
 H    -1.886940     1.729369     4.120110
 C    -0.425895     3.216448     2.260191
 H     0.362000     3.294879     1.499177
 H    -1.113438     4.068321     2.139987
 H     0.033931     3.278217     3.257840
 H     2.370476     1.351150     2.036190
 H     2.729416    -0.364499     2.127084
 C     4.302935     0.768132     1.183542
 H     4.430532     1.678695     0.577695
 H     4.682683    -0.059789     0.565692
 C     5.121495     0.895208     2.459417
 H     4.774070     1.738083     3.078653
 H     5.046298    -0.016328     3.073619
 H     6.186904     1.061213     2.238248
 C     2.351349    -1.559325    -1.856644
 H     1.318657    -1.859256    -1.587692
 C     3.279785    -2.736516    -1.649948
 H     3.216875    -3.097045    -0.613139
 H     4.322432    -2.446833    -1.854722
 H     3.010518    -3.566053    -2.320644
 C     2.368145    -1.016602    -3.270440
 H     1.651523    -0.189968    -3.377281
 H     3.370894    -0.644173    -3.532249
 H     2.090047    -1.801374    -3.989758
 C     2.398330     2.469756    -1.181096
 H     3.325050     1.880250    -1.281606
 C     2.639070     3.670779    -0.286465
 H     2.937502     3.365182     0.726041
 H     1.722991     4.275451    -0.205888
 H     3.436168     4.307209    -0.699774
 C     1.936155     2.876197    -2.566430
 H     1.776927     1.992039    -3.198378
 H     0.991507     3.438784    -2.508583
 H     2.687999     3.515730    -3.052666
