  96
scf done:    -2452.587824
 C     3.001746    -0.906881    -1.373101
 H     3.463333    -0.350837    -2.208517
 H     3.562700    -0.612925    -0.471430
 C     3.176484    -2.404291    -1.601038
 H     2.734097    -2.729359    -2.556987
 H     4.243061    -2.696154    -1.618236
 H     2.699322    -2.995086    -0.804462
Ir     0.915161    -0.450153    -1.163634
 C     1.513354    -0.055922     2.375758
 O     2.746021     1.617785     0.779462
 O     0.194502     1.895499     0.987434
 C    -2.164975     1.277909    -1.123821
 O    -2.347774    -1.353114    -1.391470
 O    -1.536767    -0.557906     0.924230
 P    -1.307182    -0.291131    -0.687589
 P     1.355068     0.754371     0.735120
 C     0.744158    -0.724710    -3.006738
 O     0.664516    -0.709172    -4.157014
 H     0.486579    -0.138738     2.761779
 H     2.100562     0.593898     3.040898
 C     2.133994    -1.414301     2.232091
 C     3.513299    -1.598382     2.364045
 H     4.149344    -0.742264     2.604593
 C     1.332792    -2.513888     1.901194
 H     0.256862    -2.365464     1.774843
 C     4.079215    -2.860245     2.191031
 H     5.158829    -2.989211     2.298290
 C     1.897188    -3.775969     1.733169
 H     1.258396    -4.624760     1.477711
 C     3.272425    -3.953367     1.880473
 H     3.716424    -4.942108     1.744326
 C     3.202492     2.305532    -0.385123
 H     3.099090     1.643478    -1.260083
 H     2.562299     3.188012    -0.557952
 C     4.636958     2.727520    -0.165905
 H     4.944576     3.333319    -1.036251
 H     4.680740     3.400281     0.709437
 C     5.601746     1.566552     0.028965
 H     5.560918     0.910353    -0.856767
 H     5.245188     0.950800     0.870767
 C     7.031127     2.015818     0.281379
 H     7.420793     2.610431    -0.560898
 H     7.100798     2.643513     1.184786
 H     7.706099     1.157827     0.420592
 C     0.216912     2.845008     2.043301
 H    -0.828386     2.941235     2.383167
 H     0.804490     2.471273     2.897933
 C     0.746932     4.188770     1.585628
 H     0.661470     4.892023     2.432800
 H     1.824914     4.093923     1.373984
 C     0.023963     4.746066     0.367814
 H    -1.052079     4.848745     0.598458
 H     0.086077     4.008024    -0.449069
 C     0.582388     6.080044    -0.098553
 H     0.508544     6.846852     0.689354
 H     1.646810     5.990724    -0.370032
 H     0.045919     6.456915    -0.982086
 H    -1.876976     1.381690    -2.183899
 H    -1.600476     2.049761    -0.580044
 C    -3.647000     1.453171    -0.960726
 C    -4.149354     2.442940    -0.106967
 H    -3.449705     3.084125     0.437642
 C    -4.561295     0.666323    -1.674993
 H    -4.184138    -0.106951    -2.345034
 C    -5.521217     2.624842     0.056609
 H    -5.889306     3.402371     0.730536
 C    -5.932561     0.845390    -1.511831
 H    -6.628864     0.216703    -2.072327
 C    -6.419889     1.820057    -0.640966
 H    -7.496167     1.957991    -0.513884
 C    -1.909139    -2.602646    -1.914605
 H    -2.787201    -3.015671    -2.435868
 H    -1.121352    -2.431159    -2.665818
 C    -1.412541    -3.563174    -0.854669
 H    -1.033776    -4.463347    -1.370459
 H    -0.532478    -3.111089    -0.362176
 C    -2.467529    -3.947960     0.170583
 H    -3.307115    -4.445849    -0.346471
 H    -2.883421    -3.026603     0.604973
 C    -1.939898    -4.845116     1.277573
 H    -1.500595    -5.771547     0.872737
 H    -1.157193    -4.338025     1.863557
 H    -2.737239    -5.135879     1.978445
 C    -2.484442     0.045823     1.785070
 H    -2.055253    -0.034550     2.798631
 H    -2.563961     1.121811     1.561094
 C    -3.850794    -0.604210     1.748814
 H    -4.246500    -0.557113     0.721988
 H    -3.745628    -1.673624     1.997332
 C    -4.827963     0.058585     2.709445
 H    -4.860664     1.141344     2.498599
 H    -4.453813    -0.041145     3.744351
 C    -6.232637    -0.512580     2.609855
 H    -6.640656    -0.366376     1.597278
 H    -6.241564    -1.594297     2.819561
 H    -6.919046    -0.029100     3.321429
