  88
scf done:    -2299.307216
 C    -1.537057    -3.091350    -0.314353
 H    -2.520267    -3.048894     0.187952
 H    -1.738017    -2.855369    -1.377516
 C    -0.999231    -4.515578    -0.244331
 H    -0.878570    -4.857524     0.796091
 H    -1.667997    -5.238642    -0.746938
 H    -0.010318    -4.605154    -0.723937
Ir    -0.222019    -1.570859     0.405607
 C    -1.040652     0.449631    -2.435727
 C    -3.327231    -0.460000    -0.973169
 C    -1.709282     1.632190     0.171774
 C     1.594235     0.634392     2.537388
 C     3.176744    -1.053572     0.763726
 C     1.892235     1.264040    -0.342965
 P     1.564201    -0.133286     0.854020
 P    -1.553799     0.005274    -0.720335
 C     0.332066    -2.661025     1.800640
 O     0.587837    -3.225435     2.776833
 H    -1.807691     1.092687    -2.898630
 H    -0.131333     1.065363    -2.345373
 C    -0.738853    -0.777610    -3.289086
 H    -1.655171    -1.378669    -3.417201
 H    -0.030586    -1.422895    -2.742600
 C    -0.164471    -0.417759    -4.649544
 H    -0.854250     0.220546    -5.224590
 H     0.786068     0.129442    -4.544208
 H     0.036827    -1.318524    -5.248854
 H    -3.307563    -1.468649    -1.418108
 H    -3.749190     0.219590    -1.729930
 C    -4.193525    -0.455409     0.258707
 C    -5.518710    -0.010405     0.164151
 H    -5.900470     0.332173    -0.802205
 C    -3.725893    -0.891731     1.505873
 H    -2.689177    -1.238061     1.597960
 C    -6.355754    -0.001497     1.278286
 H    -7.386441     0.347942     1.179201
 C    -4.561423    -0.878617     2.621186
 H    -4.174725    -1.221453     3.584042
 C    -5.878432    -0.435010     2.513933
 H    -6.531084    -0.426510     3.390118
 H    -0.714998     1.869365     0.572373
 H    -2.347812     1.410456     1.040140
 C    -2.255358     2.765957    -0.641130
 C    -3.635758     2.984914    -0.734922
 H    -4.317609     2.345064    -0.169307
 C    -1.397012     3.617468    -1.349724
 H    -0.314369     3.479182    -1.277196
 C    -4.142432     4.012394    -1.528084
 H    -5.222582     4.168331    -1.584970
 C    -1.901599     4.646555    -2.141277
 H    -1.213465     5.300193    -2.682669
 C    -3.278220     4.844300    -2.238462
 H    -3.675710     5.650755    -2.859017
 H     0.941302     1.521710     2.462987
 H     1.042319    -0.075880     3.174522
 C     2.924970     0.999795     3.186919
 H     3.541263     1.598332     2.499270
 H     3.493382     0.076957     3.389022
 C     2.729398     1.769445     4.484015
 H     2.217567     2.727407     4.298495
 H     2.119600     1.199766     5.203449
 H     3.693039     1.995567     4.965058
 H     3.076485    -1.894217     1.470861
 H     3.988493    -0.410006     1.133529
 C     3.503417    -1.547125    -0.620776
 C     4.740709    -1.244227    -1.202626
 H     5.479438    -0.679032    -0.626993
 C     2.588201    -2.302488    -1.368040
 H     1.611314    -2.543250    -0.921731
 C     5.051591    -1.664330    -2.495816
 H     6.024228    -1.415223    -2.927163
 C     2.894477    -2.719575    -2.660853
 H     2.162218    -3.303917    -3.223987
 C     4.125567    -2.398792    -3.233320
 H     4.364354    -2.725459    -4.248258
 H     0.912056     1.684763    -0.596710
 H     2.269267     0.766175    -1.250406
 C     2.810104     2.349393     0.119424
 C     4.191753     2.275327    -0.097187
 H     4.595169     1.439070    -0.672384
 C     2.304643     3.452273     0.821796
 H     1.225853     3.545194     0.977596
 C     5.046717     3.251830     0.409045
 H     6.122354     3.174362     0.232562
 C     3.157333     4.429224     1.329694
 H     2.743093     5.277654     1.879642
 C     4.534322     4.326774     1.134656
 H     5.204937     5.090244     1.535412
