 114
scf done:    -2839.638666
 C    -0.969433    -0.342791    -3.733835
 H    -0.705874    -1.062519    -4.525403
 H    -2.019968    -0.584615    -3.489500
 C    -0.872888     1.070709    -4.303065
 H     0.148399     1.288754    -4.652764
 H    -1.552692     1.228853    -5.161352
 H    -1.114901     1.847068    -3.555670
Ir     0.331028    -0.518057    -2.043449
 C    -1.311390     0.622615     1.015838
 C    -2.967817     0.919287    -1.403427
 C    -2.230466    -1.839293    -0.468054
 C     1.928578    -2.007539     0.690709
 C     3.691147    -0.423879    -1.166366
 C     2.090745     0.849510     0.878395
 P     1.980884    -0.486240    -0.392947
 P    -1.575214    -0.102270    -0.688131
 C     1.429733    -1.532856    -3.121138
 O     2.034161    -2.295006    -3.746532
 H    -0.941625    -0.216366     1.625538
 H    -0.470466     1.309588     0.861525
 C    -2.423165     1.338435     1.725788
 C    -3.276046     0.638983     2.587194
 H    -3.117252    -0.427852     2.740502
 C    -2.594043     2.733101     1.572038
 C    -1.638607     3.567315     0.767223
 H    -1.496418     3.202555    -0.260643
 H    -0.633396     3.577461     1.220419
 H    -1.983422     4.608204     0.704289
 C    -4.314403     1.277729     3.257436
 H    -4.961076     0.702904     3.924801
 C    -3.655180     3.355637     2.241715
 H    -3.794857     4.432774     2.115884
 C    -4.516783     2.643308     3.072297
 H    -5.332664     3.159298     3.584286
 H    -2.879464     1.906322    -0.932278
 H    -2.707628     1.042192    -2.462292
 C    -4.375256     0.417084    -1.283014
 C    -4.872052    -0.522519    -2.196618
 H    -4.231019    -0.882092    -3.006565
 C    -5.227199     0.891385    -0.280642
 H    -4.853358     1.634181     0.427318
 C    -6.178286    -0.991503    -2.083031
 H    -6.554123    -1.729477    -2.795800
 C    -6.545356     0.439284    -0.159303
 C    -7.443457     0.997007     0.906037
 H    -8.249675     0.295229     1.164148
 H    -6.876565     1.233003     1.817911
 H    -7.918037     1.933062     0.567099
 C    -7.008255    -0.519915    -1.067325
 H    -8.032753    -0.893141    -0.983381
 H    -2.909369    -1.996461    -1.318482
 H    -1.342206    -2.457971    -0.658862
 C    -2.877159    -2.228878     0.824432
 C    -2.090009    -2.684112     1.890686
 H    -1.008277    -2.779641     1.761391
 C    -4.263156    -2.164336     0.996057
 H    -4.887793    -1.831469     0.165781
 C    -2.679468    -3.034713     3.103103
 H    -2.057638    -3.391916     3.927590
 C    -4.870876    -2.505511     2.208144
 C    -6.355315    -2.366172     2.376868
 H    -6.609664    -1.353068     2.730715
 H    -6.881560    -2.512957     1.423063
 H    -6.750795    -3.082666     3.111338
 C    -4.060378    -2.938938     3.264281
 H    -4.517369    -3.214237     4.218790
 H     1.120127    -1.783153     1.405762
 H     1.541033    -2.794159     0.030380
 C     3.166697    -2.443579     1.407495
 C     3.512723    -1.854795     2.630171
 H     2.855591    -1.091909     3.055622
 C     3.995790    -3.451012     0.868569
 C     3.640722    -4.169352    -0.403001
 H     3.462009    -3.489197    -1.249742
 H     2.718699    -4.761745    -0.281214
 H     4.440711    -4.861879    -0.697523
 C     4.665630    -2.225209     3.314378
 H     4.912499    -1.751231     4.267155
 C     5.154863    -3.808437     1.568365
 H     5.800411    -4.587278     1.153429
 C     5.496640    -3.204939     2.776139
 H     6.407592    -3.505845     3.298663
 H     4.004090    -1.467717    -1.314537
 H     3.510562    -0.004338    -2.165784
 C     4.751972     0.369472    -0.462546
 C     4.875953     1.742200    -0.714614
 H     4.213414     2.222190    -1.438147
 C     5.625302    -0.222827     0.455523
 H     5.553056    -1.296016     0.643936
 C     5.831639     2.497666    -0.042746
 H     5.915211     3.568058    -0.245817
 C     6.595374     0.521683     1.136010
 C     7.502737    -0.139146     2.132973
 H     7.015261    -0.212500     3.119434
 H     7.755579    -1.164627     1.827275
 H     8.436937     0.425569     2.265141
 C     6.683362     1.894230     0.879745
 H     7.436592     2.492800     1.399810
 H     1.330593     0.616954     1.641275
 H     3.068973     0.756950     1.377579
 C     1.909369     2.265749     0.389607
 C     1.432581     2.584507    -0.884968
 H     1.170567     1.781013    -1.590557
 C     2.234385     3.314373     1.261132
 H     2.624586     3.073560     2.254872
 C     1.291304     3.918450    -1.269064
 H     0.924163     4.150727    -2.271981
 C     2.092818     4.654233     0.896213
 C     2.425160     5.757540     1.858499
 H     1.508636     6.201520     2.281378
 H     3.033588     5.391832     2.697561
 H     2.978212     6.569552     1.362852
 C     1.616446     4.945142    -0.390345
 H     1.505974     5.987644    -0.701980
