  94
scf done:    -3222.910838
 C     1.037432    -3.753992     0.590853
 H     0.640548    -4.661736     0.109133
 H     1.993078    -3.568984     0.068000
 C     1.304387    -4.023313     2.067875
 H     0.380821    -4.290678     2.604846
 H     2.014788    -4.858709     2.217126
 H     1.725101    -3.140007     2.574829
Ir    -0.354693    -2.113336     0.425064
 C     2.335357    -1.281059    -1.568289
 O     1.286762     0.761878     0.040634
 O     2.739295    -1.039204     1.158136
 C    -1.498168     0.770510     2.046071
 O    -1.699151     0.664800    -0.734855
 O    -3.361774    -0.596929     0.793899
 P    -1.732502    -0.326368     0.590178
 P     1.520837    -0.881529     0.049101
 C    -1.653999    -3.456968     0.167986
 O    -2.334642    -4.342282    -0.092438
 H     3.249294    -1.844127    -1.324521
 H     1.634741    -1.991745    -2.030658
 C     2.645038    -0.132222    -2.481873
 C     3.952833     0.353955    -2.573353
 H     4.737872    -0.121539    -1.981214
 C     1.627991     0.454500    -3.264488
 C     0.229759    -0.082196    -3.244534
 H    -0.208088    -0.068775    -2.235612
 H     0.199971    -1.128168    -3.591854
 H    -0.428508     0.506976    -3.897396
 C     4.267741     1.430494    -3.398354
 H     5.296222     1.794319    -3.452349
 C     1.960172     1.541752    -4.080996
 H     1.174666     2.002938    -4.685856
 C     3.262435     2.035616    -4.147973
 H     3.490986     2.884330    -4.797021
 C     2.158422     1.754347     0.405863
 C     2.597768     2.662317    -0.555858
 H     2.295755     2.531124    -1.595502
 C     2.531849     1.903165     1.743539
 H     2.183074     1.181223     2.482830
 C     3.425528     3.717695    -0.182766
 H     3.786271     4.439022    -0.917900
 C     3.362384     2.955280     2.118496
 H     3.674264     3.090628     3.155432
 C     3.800664     3.850510     1.149186
 F     4.595146     4.857937     1.505124
 C     4.078817    -1.269217     0.956873
 C     4.956480    -0.222696     0.670841
 H     4.576713     0.793251     0.567078
 C     4.560588    -2.571475     1.101851
 H     3.859969    -3.372192     1.341416
 C     6.316886    -0.481669     0.519670
 H     7.022786     0.320502     0.297379
 C     5.918974    -2.833128     0.949794
 H     6.318071    -3.843012     1.058290
 C     6.782487    -1.783451     0.658159
 F     8.081865    -2.029905     0.510894
 H    -1.562718     0.062092     2.888958
 H    -0.445246     1.075930     1.976192
 C    -2.425682     1.938167     2.244922
 C    -3.748831     1.702703     2.638541
 H    -4.073428     0.674560     2.806030
 C    -1.989915     3.265074     2.047873
 C    -0.566571     3.588335     1.704826
 H    -0.216883     3.035017     0.823275
 H     0.115228     3.338263     2.533824
 H    -0.448231     4.658710     1.489663
 C    -4.654656     2.747075     2.789720
 H    -5.684052     2.537209     3.089705
 C    -2.916878     4.301873     2.200156
 H    -2.585356     5.329968     2.032219
 C    -4.239122     4.055754     2.556985
 H    -4.939910     4.887186     2.663527
 C    -2.257248     1.895965    -0.962850
 C    -3.610270     2.158115    -0.740204
 H    -4.254707     1.383633    -0.326510
 C    -1.423487     2.878011    -1.497039
 H    -0.374634     2.636901    -1.678077
 C    -4.117209     3.423549    -1.014147
 H    -5.164730     3.663072    -0.825906
 C    -1.931845     4.143495    -1.776973
 H    -1.299380     4.933469    -2.185678
 C    -3.272151     4.403312    -1.521432
 F    -3.760256     5.618888    -1.773312
 C    -4.063186    -1.504169     0.047549
 C    -4.974327    -2.322093     0.715594
 H    -5.078836    -2.222769     1.797229
 C    -3.898637    -1.610337    -1.335616
 H    -3.184918    -0.965220    -1.849891
 C    -5.718636    -3.257595     0.005799
 H    -6.432149    -3.915287     0.504964
 C    -4.636959    -2.553120    -2.045803
 H    -4.520482    -2.666193    -3.124872
 C    -5.535370    -3.366573    -1.368056
 F    -6.240155    -4.269110    -2.048680
