  90
scf done:    -2374.048311
 C    -1.632367    -2.941127     0.703424
 H    -1.260082    -3.536633     1.555844
 H    -2.495115    -2.386766     1.112752
 C    -2.117600    -3.888216    -0.390156
 H    -1.313319    -4.555269    -0.739189
 H    -2.948312    -4.533451    -0.048610
 H    -2.476163    -3.352321    -1.285413
Ir    -0.016997    -1.617798     0.145778
 C    -3.057660    -0.362047    -0.939586
 O    -2.416412     0.381143     1.540160
 O    -1.067101     1.508161    -0.335727
 C     1.900339     1.230799     0.834521
 O     3.191189    -1.021312     0.022170
 O     2.041098     0.407092    -1.719530
 P     1.763395    -0.263846    -0.238175
 P    -1.627486     0.040718     0.146113
 C     1.043731    -3.142275    -0.124807
 O     1.666339    -4.077645    -0.360195
 H    -2.630994    -0.304210    -1.953681
 H    -3.223769    -1.431401    -0.744109
 C    -4.338510     0.417690    -0.844522
 C    -4.586412     1.447798    -1.759227
 H    -3.848056     1.649884    -2.538794
 C    -5.321607     0.106921     0.119487
 C    -5.171181    -1.056003     1.054757
 H    -4.280771    -0.942605     1.687549
 H    -5.056546    -2.002209     0.500822
 H    -6.052796    -1.154817     1.702383
 C    -5.746827     2.213794    -1.704217
 H    -5.910146     3.013381    -2.430479
 C    -6.481171     0.889411     0.163816
 H    -7.241739     0.654074     0.913353
 C    -6.696174     1.940639    -0.723562
 H    -7.613548     2.530661    -0.660423
 C    -1.689750     0.614181     2.759793
 H    -0.819839     1.254068     2.521460
 C    -1.191347    -0.683169     3.360615
 H    -0.519026    -1.206805     2.655996
 H    -2.032441    -1.353286     3.594207
 H    -0.634833    -0.479633     4.287707
 C    -2.633336     1.373269     3.667117
 H    -2.988532     2.294051     3.182360
 H    -3.511332     0.753553     3.904361
 H    -2.131593     1.640239     4.608657
 C    -1.797499     2.746040    -0.366892
 H    -2.863452     2.537794    -0.185461
 C    -1.613285     3.344451    -1.746403
 H    -1.927677     2.640559    -2.529038
 H    -0.553970     3.589647    -1.917557
 H    -2.205452     4.265453    -1.851644
 C    -1.275388     3.662053     0.722166
 H    -1.417010     3.221779     1.717776
 H    -0.202572     3.865423     0.580563
 H    -1.811450     4.622560     0.697392
 H     1.074952     1.867205     0.485692
 H     1.638469     0.885930     1.845039
 C     3.215678     1.938678     0.798075
 C     3.487905     2.843450    -0.234912
 H     2.718590     3.026328    -0.988080
 C     4.203363     1.684458     1.771934
 C     3.954953     0.714872     2.891409
 H     3.676492    -0.275930     2.500622
 H     3.133751     1.052241     3.545711
 H     4.849965     0.597669     3.517921
 C     4.716074     3.491633    -0.324029
 H     4.907975     4.190551    -1.141642
 C     5.429483     2.351184     1.672671
 H     6.196688     2.158460     2.427958
 C     5.694012     3.243387     0.636264
 H     6.662772     3.745752     0.581948
 C     4.373152    -0.916927    -0.787046
 H     4.434492     0.104807    -1.195362
 C     4.288391    -1.918824    -1.922297
 H     3.419020    -1.710230    -2.558417
 H     4.188815    -2.939395    -1.522319
 H     5.193186    -1.872492    -2.547250
 C     5.558996    -1.174997     0.117639
 H     5.628650    -0.411382     0.902578
 H     5.468366    -2.165448     0.589266
 H     6.490910    -1.151296    -0.466583
 C     1.029422     0.498458    -2.729631
 H     0.078463     0.763040    -2.239852
 C     0.858627    -0.820935    -3.455129
 H     0.580132    -1.609998    -2.738705
 H     1.785619    -1.110187    -3.973716
 H     0.056784    -0.741597    -4.205391
 C     1.443179     1.631347    -3.644689
 H     1.533356     2.573408    -3.084566
 H     2.418030     1.414037    -4.107488
 H     0.701116     1.772710    -4.444633
