  68
scf done:    -1837.557139
 C     1.545585    -0.302827    -2.128595
 H     1.324115     0.457374    -2.900462
 H     2.520642    -0.016773    -1.698308
 C     1.715819    -1.664000    -2.793335
 H     0.823250    -1.962015    -3.366861
 H     2.573218    -1.678841    -3.491706
 H     1.897677    -2.456997    -2.049743
Ir     0.069653    -0.268728    -0.578834
 C     2.681296     1.022048     1.560502
 C     2.091087     2.607122    -0.776276
 C     0.284721     2.638406     1.467178
 C    -2.728724     0.477743     1.653392
 C    -2.244519    -2.271013     1.058403
 C    -0.470832    -0.876771     2.865381
 P    -1.329489    -0.678478     1.232921
 P     1.279775     1.476377     0.427992
 C    -1.110608    -1.088217    -1.753308
 O    -1.902340    -1.453189    -2.510540
 H     2.220121     0.568711     2.452170
 H     3.211058     1.932005     1.881675
 C     3.620499     0.057420     0.897839
 C     4.843874     0.489320     0.376499
 H     5.140704     1.535051     0.497857
 C     3.255563    -1.284347     0.729156
 H     2.282961    -1.626650     1.094910
 C     5.684270    -0.395950    -0.297959
 H     6.635271    -0.040134    -0.701542
 C     4.094110    -2.170389     0.060854
 H     3.788834    -3.211206    -0.068273
 C     5.311392    -1.728472    -0.457780
 H     5.966202    -2.422525    -0.989625
 H     2.793177     1.984477    -1.350241
 C     1.092223     3.280576    -1.704911
 H     0.439372     3.985796    -1.166512
 H     0.448820     2.529422    -2.187656
 H     2.694876     3.344250    -0.221884
 H     1.610424     3.847297    -2.493094
 H    -0.090476     2.040970     2.312844
 C     0.972590     3.898138     1.968490
 H     1.289752     4.549415     1.140811
 H     1.861994     3.670916     2.575663
 H    -0.602146     2.887098     0.862164
 H     0.288618     4.485264     2.600433
 H    -2.271465     1.444677     1.912201
 H    -3.259175     0.109145     2.544972
 C    -3.677482     0.624095     0.500035
 C    -4.958388     0.063424     0.551382
 H    -5.280922    -0.455326     1.458841
 C    -3.280233     1.280545    -0.672602
 H    -2.264475     1.680206    -0.742513
 C    -5.824580     0.158156    -0.536837
 H    -6.821275    -0.285870    -0.477303
 C    -4.142599     1.372938    -1.761120
 H    -3.809985     1.876688    -2.671690
 C    -5.418332     0.813277    -1.697433
 H    -6.092652     0.882787    -2.554197
 H    -2.888190    -2.140627     0.173366
 C    -1.322452    -3.466472     0.879013
 H    -0.720281    -3.659700     1.781167
 H    -0.624829    -3.296197     0.043907
 H    -2.919461    -2.405556     1.920086
 H    -1.898109    -4.379517     0.664177
 H    -0.051062     0.112160     3.112065
 C    -1.275549    -1.420980     4.034682
 H    -1.640952    -2.439986     3.839332
 H    -2.148616    -0.792034     4.265729
 H     0.398993    -1.521550     2.657546
 H    -0.657219    -1.465720     4.944633
