  62
scf done:    -1758.999378
 C    -1.756089    -2.584844     0.335049
 H    -1.512681    -3.323746     1.118251
 H    -2.590379    -2.003099     0.766750
 C    -2.264709    -3.318378    -0.903501
 H    -1.505487    -4.006168    -1.308296
 H    -3.169805    -3.919368    -0.693939
 H    -2.519247    -2.627235    -1.724897
Ir    -0.014739    -1.380474    -0.061426
 C    -2.987670     0.355337    -0.809146
 C    -2.111404     0.452064     2.017315
 C    -0.990122     2.190315     0.123062
 C     2.613292     0.845698     0.775579
 C     3.295521    -1.173159    -1.197530
 C     1.769169     1.028081    -2.005224
 P     1.877495    -0.167009    -0.613381
 P    -1.490375     0.432196     0.295854
 C     0.926775    -2.974096    -0.048682
 O     1.497361    -3.974580     0.016980
 H    -2.590602     0.584211    -1.810951
 H    -3.290185    -0.699421    -0.830275
 C    -4.121007     1.269919    -0.456456
 C    -4.113724     2.593080    -0.917385
 H    -3.300772     2.920248    -1.571069
 C    -5.198482     0.830596     0.343611
 C    -5.309058    -0.595180     0.801299
 H    -4.459474    -0.902555     1.428482
 H    -5.333668    -1.291461    -0.052424
 H    -6.227279    -0.749198     1.383891
 C    -5.121383     3.491001    -0.577417
 H    -5.090606     4.516322    -0.953264
 C    -6.201957     1.747162     0.678474
 H    -7.037059     1.407574     1.297333
 C    -6.168778     3.066836     0.235653
 H    -6.968446     3.757158     0.514034
 H    -2.390073    -0.562192     2.328694
 H    -1.286629     0.789144     2.661667
 H    -2.966016     1.137208     2.126898
 H    -0.096438     2.373432     0.735817
 H    -0.750606     2.417821    -0.924688
 H    -1.794667     2.860995     0.458065
 H     1.834993     1.582270     1.027479
 H     2.663145     0.153395     1.627762
 C     3.919950     1.526776     0.507296
 C     3.929954     2.755959    -0.165666
 H     2.976320     3.215764    -0.438737
 C     5.149292     0.954694     0.901125
 C     5.207428    -0.320559     1.693005
 H     4.743368    -1.164682     1.162823
 H     4.679435    -0.220032     2.655335
 H     6.247443    -0.597167     1.913115
 C     5.118540     3.406981    -0.482052
 H     5.095103     4.364869    -1.006952
 C     6.335617     1.621150     0.573307
 H     7.287755     1.178384     0.878619
 C     6.332080     2.830002    -0.117658
 H     7.275677     3.324998    -0.358681
 H     3.512566    -1.975343    -0.479403
 H     3.002179    -1.646906    -2.145802
 H     4.194813    -0.559283    -1.357704
 H     1.363521     0.487482    -2.872797
 H     1.080976     1.847222    -1.759656
 H     2.752621     1.448112    -2.262972
