  88
scf done:    -2299.309488
 C     1.385871    -2.962552     0.521177
 H     1.726247    -3.619541    -0.298702
 H     2.312986    -2.536688     0.939222
 C     0.696424    -3.806380     1.587952
 H    -0.175514    -4.346933     1.186010
 H     1.377401    -4.561698     2.023476
 H     0.324050    -3.192849     2.425984
Ir     0.074049    -1.436400    -0.211927
 C     1.909752     0.703209     2.042691
 C     3.428420    -0.377538    -0.196959
 C     1.619044     1.728526    -0.634438
 C    -1.680717     1.572715    -1.563762
 C    -3.305786    -0.502758    -0.523947
 C    -1.623025     0.975341     1.284448
 P    -1.605978     0.169628    -0.361704
 P     1.744674     0.154241     0.296280
 C    -0.839223    -2.795935    -1.074403
 O    -1.305473    -3.641208    -1.708270
 H     2.709976     1.457681     2.126242
 H     0.962158     1.212376     2.282468
 C     2.133254    -0.447237     3.014533
 H     3.059928    -0.983717     2.750494
 H     1.317813    -1.177872     2.891991
 C     2.199773     0.023841     4.458039
 H     3.027625     0.734775     4.612542
 H     1.266984     0.532985     4.748386
 H     2.351539    -0.819704     5.148261
 C     3.562869    -1.332238    -1.210267
 H     2.658324    -1.790360    -1.622008
 C     4.583406     0.196125     0.343372
 H     4.511516     0.956762     1.124377
 C     4.822859    -1.701042    -1.670295
 H     4.905979    -2.447971    -2.464756
 C     5.841456    -0.186582    -0.112865
 H     6.733508     0.270934     0.324220
 C     5.984968    -1.141474    -1.126479
 C     7.342827    -1.575496    -1.594364
 H     7.677008    -2.472529    -1.046435
 H     7.337538    -1.831704    -2.663863
 H     8.096795    -0.792055    -1.431085
 C     1.404427     2.971224    -0.035525
 H     1.352694     3.062811     1.050174
 C     1.682172     1.661749    -2.034190
 H     1.843823     0.695084    -2.518552
 C     1.224605     4.112651    -0.819581
 H     1.045089     5.074591    -0.330980
 C     1.516418     2.802489    -2.806709
 H     1.564516     2.725094    -3.896544
 C     1.268545     4.050228    -2.214439
 C     1.039931     5.267059    -3.061206
 H     1.825329     5.377774    -3.824511
 H     0.077765     5.197570    -3.594900
 H     1.020441     6.183874    -2.455610
 H    -0.836281     2.233710    -1.317546
 H    -1.421920     1.129475    -2.539324
 C    -2.983957     2.355989    -1.656317
 H    -3.327542     2.645329    -0.649017
 H    -3.775893     1.702706    -2.055646
 C    -2.839221     3.596096    -2.526222
 H    -2.088176     4.287994    -2.110982
 H    -2.510497     3.331449    -3.544297
 H    -3.790196     4.143572    -2.613375
 C    -3.611464    -1.248381    -1.670428
 H    -2.834640    -1.452487    -2.411668
 C    -4.321608    -0.264086     0.404792
 H    -4.115455     0.325693     1.300561
 C    -4.894994    -1.738980    -1.877063
 H    -5.108066    -2.318247    -2.779912
 C    -5.604099    -0.769860     0.197007
 H    -6.382951    -0.574112     0.939581
 C    -5.915578    -1.515863    -0.942933
 C    -7.287771    -2.085467    -1.152814
 H    -7.609572    -1.985013    -2.200316
 H    -7.307944    -3.160976    -0.910017
 H    -8.033249    -1.588984    -0.515539
 C    -1.513524     2.351993     1.492834
 H    -1.502060     3.039640     0.646101
 C    -1.618147     0.129543     2.407471
 H    -1.679201    -0.952775     2.257581
 C    -1.391712     2.868185     2.784567
 H    -1.298346     3.949181     2.922166
 C    -1.511911     0.650750     3.690256
 H    -1.511662    -0.029033     4.547063
 C    -1.387455     2.032340     3.904053
 C    -1.238478     2.581173     5.292181
 H    -2.039638     2.217290     5.953892
 H    -0.282540     2.265506     5.741623
 H    -1.264196     3.679681     5.298033
