 108
scf done:    -2161.440711
 C     0.494085    -3.288163     1.414547
 H     0.554591    -4.219937     0.826177
 H     1.516376    -3.149676     1.809434
 C    -0.454910    -3.494431     2.592616
 H    -1.476945    -3.730586     2.255770
 H    -0.130544    -4.318988     3.255645
 H    -0.535225    -2.591542     3.220863
Ir    -0.192198    -1.656022     0.194014
 C     1.945745    -0.400988     2.723418
 C     3.262676    -1.517239     0.391641
 C     2.166871     1.133921     0.272965
 C    -0.328958     1.050138    -2.195595
 C    -2.867944    -0.226816    -1.543246
 C    -1.625854     1.502282     0.393460
 P    -1.215068     0.168409    -0.820720
 P     1.775494    -0.559836     0.898188
 C    -1.334474    -2.865190    -0.613216
 O    -1.964031    -3.642649    -1.193064
 H     2.954382    -0.038868     2.984698
 H     1.856857    -1.426411     3.113808
 C     0.862776     0.496557     3.307497
 H     0.952088     1.507724     2.872272
 H    -0.124612     0.115319     2.987302
 C     0.880447     0.632713     4.831963
 H     1.888159     0.986431     5.122759
 C    -0.131219     1.684815     5.272803
 H     0.068148     2.660434     4.801775
 H    -0.115003     1.827803     6.364265
 H    -1.154031     1.382826     4.991852
 C     0.624914    -0.694458     5.536927
 H     0.647718    -0.571384     6.630688
 H     1.373098    -1.457412     5.275661
 H    -0.365438    -1.096011     5.265616
 H     4.169877    -1.033616     0.791396
 H     3.174653    -2.496431     0.887324
 C     3.346625    -1.706930    -1.117065
 H     2.373810    -2.093044    -1.471238
 H     3.487593    -0.730008    -1.613870
 C     4.466222    -2.646107    -1.541048
 H     4.315255    -3.628364    -1.058028
 H     5.432950    -2.269042    -1.158674
 C     4.557632    -2.834135    -3.048938
 H     3.586960    -3.203922    -3.423295
 H     4.706170    -1.849641    -3.527806
 C     5.666850    -3.782460    -3.474162
 H     5.707184    -3.897575    -4.567960
 H     5.522527    -4.784757    -3.039767
 H     6.652932    -3.419952    -3.141140
 H     2.186767     1.038807    -0.824327
 H     1.295348     1.768608     0.497386
 C     3.438272     1.805248     0.767950
 H     3.407876     1.910020     1.866246
 H     4.313652     1.170529     0.547879
 C     3.648283     3.178471     0.142467
 H     2.771284     3.815402     0.360645
 H     3.674325     3.076586    -0.958125
 C     4.912778     3.881489     0.615167
 H     4.882548     3.978182     1.715002
 H     5.785272     3.240564     0.396681
 C     5.112406     5.250616    -0.014263
 H     6.033325     5.733452     0.345792
 H     4.271349     5.923605     0.218128
 H     5.181399     5.179358    -1.111708
 H     0.345513     0.296084    -2.633403
 H     0.323117     1.777964    -1.689698
 C    -1.131805     1.726965    -3.298237
 H    -1.700391     0.963127    -3.853521
 H    -1.883986     2.412048    -2.870839
 C    -0.272334     2.513837    -4.293907
 H     0.503476     1.825378    -4.679250
 C    -1.118691     2.975798    -5.474687
 H    -1.600704     2.125714    -5.982011
 H    -0.512209     3.513371    -6.219953
 H    -1.916678     3.659740    -5.139978
 C     0.433001     3.698251    -3.640237
 H     1.035257     4.255262    -4.374365
 H     1.110923     3.389450    -2.829810
 H    -0.301636     4.401626    -3.212189
 H    -3.270866     0.637804    -2.093351
 H    -2.682853    -1.018949    -2.288323
 C    -3.869265    -0.711902    -0.500940
 H    -3.356096    -1.363929     0.228037
 H    -4.245616     0.150092     0.077888
 C    -5.042956    -1.467250    -1.107227
 H    -4.654327    -2.349045    -1.647235
 H    -5.538565    -0.836750    -1.868530
 C    -6.067405    -1.919647    -0.076563
 H    -5.560049    -2.541087     0.682202
 H    -6.450472    -1.037434     0.467171
 C    -7.228298    -2.694044    -0.679223
 H    -7.950107    -3.010033     0.089244
 H    -6.875297    -3.600322    -1.196949
 H    -7.774278    -2.085695    -1.418541
 H    -2.251971     1.004687     1.153265
 H    -0.687790     1.744564     0.917767
 C    -2.293257     2.774433    -0.105102
 H    -1.630205     3.288032    -0.822382
 H    -3.212263     2.527279    -0.664837
 C    -2.639925     3.736549     1.023632
 H    -1.723364     3.971723     1.595607
 H    -3.313667     3.230836     1.739041
 C    -3.284677     5.030467     0.547042
 H    -2.607244     5.528981    -0.169158
 H    -4.197331     4.788885    -0.026250
 C    -3.628353     5.986756     1.677487
 H    -4.091948     6.911465     1.301922
 H    -2.728739     6.272796     2.246040
 H    -4.332749     5.526805     2.389125
