 114
scf done:    -2539.837429
 C    -1.643160    -2.912586    -0.153857
 H    -1.668370    -3.725197     0.590883
 H    -2.671965    -2.519509    -0.165682
 C    -1.325131    -3.497496    -1.526393
 H    -0.344877    -4.000000    -1.537739
 H    -2.078176    -4.242330    -1.847211
 H    -1.288474    -2.724074    -2.313795
Ir    -0.125214    -1.455875     0.267028
 C    -2.665530     0.144120    -1.575730
 C    -3.307342    -0.420464     1.250471
 C    -1.732084     1.920972     0.559262
 C     2.295272     1.046654     1.211165
 C     3.318769    -1.466582     0.009409
 C     1.909587     0.550142    -1.723870
 P     1.886798    -0.271558    -0.048587
 P    -1.897621     0.116934     0.136953
 C     0.725573    -2.793746     1.199162
 O     1.164041    -3.580742     1.927951
 H    -1.946694     0.702821    -2.194624
 H    -2.607419    -0.900054    -1.911206
 C    -4.046987     0.701780    -1.730705
 C    -4.232220     2.090599    -1.774340
 H    -3.355455     2.742399    -1.763951
 C    -5.178503    -0.139703    -1.808725
 C    -5.055820    -1.635522    -1.879799
 H    -4.602727    -2.070343    -0.975756
 H    -4.422806    -1.949685    -2.725004
 H    -6.042167    -2.100531    -2.010994
 C    -5.501594     2.657966    -1.822848
 H    -5.614636     3.744332    -1.846172
 C    -6.448282     0.447923    -1.851815
 H    -7.325517    -0.202995    -1.901983
 C    -6.620642     1.829527    -1.842848
 H    -7.626038     2.255778    -1.872329
 H    -3.792161    -1.200952     0.641780
 C    -4.388873     0.617617     1.566844
 H    -4.746230     1.118236     0.657327
 H    -3.975785     1.402974     2.222541
 C    -5.563132    -0.048422     2.280897
 H    -6.331605     0.705723     2.516809
 H    -6.038785    -0.766837     1.588646
 C    -5.119361    -0.775391     3.545018
 H    -5.975753    -1.283256     4.018151
 H    -4.756559    -0.031740     4.278112
 C    -4.001418    -1.770046     3.251626
 H    -4.394139    -2.586057     2.617949
 H    -3.652065    -2.244035     4.183241
 C    -2.830889    -1.108803     2.532310
 H    -2.360786    -0.367643     3.201621
 H    -2.044997    -1.839025     2.288383
 H    -2.749189     2.341918     0.471893
 C    -0.818679     2.679246    -0.399422
 H    -1.170560     2.586903    -1.439143
 H     0.174947     2.209489    -0.376054
 C    -0.682974     4.150563    -0.023313
 H     0.002736     4.654762    -0.724152
 H    -1.663908     4.647075    -0.136909
 C    -0.197208     4.313325     1.411583
 H    -0.142411     5.380438     1.680486
 H     0.834097     3.924920     1.493954
 C    -1.104717     3.567029     2.381379
 H    -2.100739     4.046118     2.382665
 H    -0.720835     3.649901     3.410999
 C    -1.266221     2.096551     2.007931
 H    -0.317028     1.554047     2.150564
 H    -1.978693     1.620804     2.695801
 H     1.380794     1.654371     1.210820
 H     2.261861     0.488200     2.157415
 C     3.483245     1.959431     1.140536
 C     3.492936     3.004005     0.207158
 H     2.632835     3.129382    -0.456078
 C     4.567817     1.835390     2.035806
 C     4.579836     0.792468     3.117817
 H     4.471122    -0.228132     2.718524
 H     3.754160     0.944422     3.832005
 H     5.519558     0.828602     3.685479
 C     4.566407     3.883608     0.105260
 H     4.548334     4.684350    -0.637735
 C     5.641449     2.725094     1.918093
 H     6.485768     2.623275     2.605532
 C     5.655503     3.735508     0.959870
 H     6.509068     4.413976     0.892762
 H     3.181512    -1.893643     1.022025
 C     4.760777    -0.956877    -0.068514
 H     4.926191    -0.094896     0.588063
 H     4.980786    -0.607132    -1.087614
 C     5.728927    -2.085921     0.279854
 H     6.767020    -1.718308     0.231626
 H     5.558599    -2.399538     1.326199
 C     5.545969    -3.285003    -0.644548
 H     6.215159    -4.108319    -0.345809
 H     5.848699    -2.995195    -1.667435
 C     4.096307    -3.758461    -0.671313
 H     3.823906    -4.182376     0.311601
 H     3.971552    -4.571368    -1.405049
 C     3.136912    -2.616229    -0.988379
 H     3.338043    -2.241447    -2.007837
 H     2.094062    -2.969689    -0.982982
 H     1.422775     1.520446    -1.523768
 C     1.000684    -0.197845    -2.705116
 H     0.043574    -0.444130    -2.215547
 H     1.459085    -1.167209    -2.964827
 C     0.776274     0.622313    -3.970057
 H     0.137452     0.066286    -4.675318
 H     0.221442     1.542425    -3.706939
 C     2.096717     1.003149    -4.631894
 H     1.917889     1.645409    -5.509530
 H     2.583105     0.086764    -5.012290
 C     3.039040     1.690323    -3.649361
 H     2.618587     2.671565    -3.360668
 H     4.008313     1.900407    -4.130068
 C     3.251693     0.851749    -2.391122
 H     3.735603    -0.097604    -2.674410
 H     3.936869     1.364673    -1.702348
