  96
scf done:    -2603.914720
 C    -1.339154    -3.814423    -0.213287
 H    -0.943360    -4.686773     0.330717
 H    -2.309907    -3.612017     0.275456
 C    -1.538514    -4.201318    -1.675538
 H    -0.585751    -4.500439    -2.139437
 H    -2.239278    -5.049081    -1.794891
 H    -1.933313    -3.370873    -2.286574
Ir    -0.006524    -2.149622    -0.112625
 C    -1.721427     0.865701    -1.292136
 C    -3.510560    -1.410972    -0.855124
 C    -2.114362    -0.195630     1.503723
 C     1.960970     0.255840     1.450253
 C     3.327507    -1.547971    -0.535421
 C     1.802273     0.780999    -1.492394
 P     1.749817    -0.587347    -0.210720
 P    -1.877494    -0.703433    -0.281066
 C     1.115313    -3.251981     0.844262
 O     1.734628    -3.877248     1.596106
 H    -1.111705     0.543525    -2.148835
 H    -1.097398     1.539912    -0.688432
 C    -2.936801     1.577883    -1.802945
 C    -3.532353     2.627199    -1.093676
 H    -3.104459     2.949410    -0.144646
 C    -3.488766     1.215413    -3.040312
 H    -3.015087     0.424912    -3.630063
 C    -4.666409     3.266863    -1.587616
 H    -5.116315     4.078444    -1.010837
 C    -4.624044     1.853181    -3.536336
 H    -5.038320     1.550739    -4.500987
 C    -5.223944     2.877953    -2.805107
 H    -6.114879     3.379595    -3.189906
 H    -3.351835    -2.496101    -0.878858
 H    -3.629753    -1.080202    -1.896013
 C    -4.742248    -1.101578    -0.059138
 C    -5.628178    -0.085540    -0.437136
 H    -5.426031     0.500850    -1.334051
 C    -5.042283    -1.853827     1.086091
 H    -4.379296    -2.673809     1.378205
 C    -6.765925     0.185663     0.319747
 H    -7.440907     0.985263     0.005127
 C    -6.176639    -1.580160     1.847722
 H    -6.388997    -2.177490     2.737604
 C    -7.041534    -0.552930     1.469887
 H    -7.932003    -0.336865     2.064854
 H    -1.131018    -0.403336     1.947484
 H    -2.808930    -0.936501     1.923937
 C    -2.551227     1.198684     1.830018
 C    -3.891636     1.510672     2.085079
 H    -4.645694     0.723526     2.045565
 C    -1.600900     2.225879     1.914899
 H    -0.544472     1.990182     1.763327
 C    -4.271952     2.816612     2.386127
 H    -5.324700     3.037465     2.577926
 C    -1.978811     3.533960     2.211049
 H    -1.219656     4.317725     2.271680
 C    -3.321235     3.835714     2.441126
 H    -3.622579     4.859410     2.675127
 H     1.334055    -0.357070     2.113720
 H     1.468718     1.234181     1.349818
 C     3.325123     0.413498     2.045096
 C     4.032613     1.617159     1.946975
 H     3.585207     2.464691     1.425353
 C     3.912155    -0.654934     2.738429
 H     3.361963    -1.594714     2.845789
 C     5.302822     1.741814     2.504851
 H     5.839444     2.689204     2.412717
 C     5.183742    -0.531689     3.294896
 H     5.625576    -1.376580     3.828452
 C     5.887127     0.667260     3.174880
 H     6.884170     0.765383     3.610666
 H     2.970813    -2.379543    -1.161214
 H     3.604696    -1.988566     0.433556
 C     4.504026    -0.889449    -1.186754
 C     5.544297    -0.323012    -0.440052
 H     5.511078    -0.363768     0.648545
 C     4.596863    -0.852525    -2.586110
 H     3.815825    -1.326750    -3.187926
 C     6.622843     0.291229    -1.071669
 H     7.418656     0.730279    -0.465184
 C     5.673717    -0.236206    -3.220949
 H     5.722385    -0.217701    -4.312351
 C     6.689206     0.347071    -2.463626
 H     7.535088     0.831118    -2.957414
 H     0.762887     0.912298    -1.810615
 H     2.342802     0.354984    -2.349613
 C     2.385020     2.108977    -1.110276
 C     3.713928     2.438864    -1.402678
 H     4.344218     1.721723    -1.928820
 C     1.594773     3.066748    -0.457393
 H     0.542625     2.852444    -0.251879
 C     4.241766     3.672668    -1.029479
 H     5.283304     3.902288    -1.266581
 C     2.121322     4.299858    -0.078534
 H     1.483907     5.027667     0.429500
 C     3.453013     4.605765    -0.357617
 H     3.869590     5.571665    -0.062730
