  96
scf done:    -3895.330565
 C    -1.555058    -3.246135    -1.175936
 H    -1.182470    -4.278435    -1.073228
 H    -2.601110    -3.269780    -0.832496
 C    -1.495060    -2.831367    -2.640282
 H    -0.455764    -2.761356    -3.005963
 H    -2.013991    -3.555311    -3.295229
 H    -1.962365    -1.848411    -2.812735
Ir    -0.311267    -1.935820    -0.053546
 O    -2.069375     0.531860    -1.830883
 C    -3.635717    -0.951369    -0.414512
 C    -2.089615     0.922226     0.962996
 O     1.904235     0.030957     1.942403
 C     3.017743    -2.014580     0.822119
 C     2.361118     0.157979    -0.836311
 P     1.648485    -0.834807     0.523349
 P    -1.919269    -0.311918    -0.377525
 C     0.106481    -3.370439     1.048771
 O     0.170719    -4.192106     1.857576
 C    -1.253085     1.453484    -2.376953
 C    -1.124892     1.450664    -3.770484
 H    -1.665201     0.696426    -4.345500
 C    -0.584191     2.424268    -1.627456
 H    -0.717310     2.452914    -0.547568
 C    -0.314051     2.385632    -4.402748
 H    -0.202774     2.380839    -5.488440
 C     0.246267     3.346840    -2.255994
 H     0.794821     4.086933    -1.670698
 C     0.386813     3.319251    -3.640201
Cl     1.462755     4.434788    -4.421097
 C    -4.519102    -0.696964    -1.461123
 H    -4.180419    -0.074179    -2.288993
 C    -4.065534    -1.745180     0.668724
 O    -3.167770    -1.933169     1.648772
 C    -3.410902    -2.868424     2.661374
 H    -4.239556    -2.552053     3.318609
 H    -2.487263    -2.933200     3.249992
 H    -3.636382    -3.864406     2.244117
 C    -5.809096    -1.228918    -1.453742
 H    -6.488397    -1.024178    -2.283761
 C    -5.354576    -2.284066     0.675897
 H    -5.688495    -2.904047     1.508186
 C    -6.218671    -2.021806    -0.387027
 H    -7.225383    -2.446719    -0.372700
 C    -1.491265     0.624685     2.187886
 H    -0.892945    -0.289030     2.251985
 C    -2.887027     2.082281     0.853046
 O    -3.490432     2.294384    -0.328744
 C    -4.255856     3.449968    -0.519989
 H    -5.109384     3.495328     0.178274
 H    -4.637150     3.401983    -1.547499
 H    -3.648461     4.364798    -0.406734
 C    -1.645832     1.462274     3.289530
 H    -1.166219     1.214305     4.237040
 C    -2.999493     2.950291     1.944388
 H    -3.577355     3.870611     1.860967
 C    -2.381076     2.633963     3.153665
 H    -2.473382     3.325863     3.994167
 C     1.605270     1.304573     2.259632
 C     1.167485     2.252807     1.333320
 H     1.091797     1.982894     0.281736
 C     1.745485     1.668219     3.603291
 H     2.103490     0.921779     4.314709
 C     0.809593     3.529047     1.754031
 H     0.434325     4.262274     1.037766
 C     1.399661     2.946704     4.024391
 H     1.487931     3.228130     5.075094
 C     0.911229     3.869046     3.100013
Cl     0.403600     5.441083     3.633815
 C     3.795698    -2.005748     1.977654
 H     3.603499    -1.239047     2.728028
 C     3.263244    -2.993605    -0.162068
 O     2.493170    -2.923952    -1.263677
 C     2.558519    -3.935289    -2.229329
 H     3.547150    -3.966447    -2.719140
 H     1.794461    -3.696811    -2.979545
 H     2.335890    -4.924299    -1.794237
 C     4.794747    -2.959403     2.174698
 H     5.392119    -2.943173     3.088593
 C     4.258462    -3.953490     0.034865
 H     4.447981    -4.716753    -0.720058
 C     5.018396    -3.930123     1.204305
 H     5.794836    -4.685024     1.350308
 C     1.781663     0.012737    -2.097585
 H     0.897917    -0.627630    -2.191461
 C     3.506507     0.968055    -0.694542
 O     4.047766     1.033922     0.532788
 C     5.118591     1.902275     0.773836
 H     6.007807     1.630861     0.179043
 H     5.359833     1.807619     1.839778
 H     4.845740     2.950235     0.560589
 C     2.310729     0.655812    -3.212931
 H     1.848102     0.525033    -4.191347
 C     4.008788     1.655635    -1.804917
 H     4.873218     2.311958    -1.704048
 C     3.412903     1.489686    -3.054591
 H     3.813896     2.034522    -3.912268
