  90
scf done:    -4363.247785
 C     1.807262    -2.220012    -2.192416
 H     1.624484    -2.356193    -3.270830
 H     2.783198    -1.715491    -2.133556
 C     1.875637    -3.592027    -1.529423
 H     0.930498    -4.147194    -1.643682
 H     2.674445    -4.220595    -1.964868
 H     2.071722    -3.532131    -0.445560
Ir     0.281588    -1.024768    -1.294906
 C     1.809522     0.116800     1.824352
 C     3.676993    -0.061078    -0.364207
 C     1.676707     1.973945    -0.427587
 C    -2.460017     1.116609    -1.586546
 C    -2.899368    -1.214140     0.139218
 C    -1.540480     1.058554     1.161116
 P    -1.610041     0.002195    -0.343066
 P     1.891043     0.194318    -0.043725
 C    -0.749991    -1.576860    -2.722819
 O    -1.348540    -1.821643    -3.679313
 H     2.313799     1.003396     2.230761
 H     0.742025     0.196917     2.073244
 C     2.441804    -1.118137     2.393954
 C     3.739206    -1.028083     2.911639
 H     4.235394    -0.053958     2.924178
 C     1.795043    -2.372482     2.368393
 C     0.397993    -2.524872     1.854726
 H     0.320807    -2.265241     0.775344
 H    -0.300567    -1.859188     2.382986
 H     0.038503    -3.555956     1.969993
 C     4.415186    -2.148793     3.383221
 H     5.429092    -2.050498     3.777179
 C     2.493594    -3.491737     2.836607
 H     1.998301    -4.466072     2.811010
 C     3.790809    -3.392157     3.333960
 H     4.308260    -4.285825     3.690650
 C     4.230796    -1.332370    -0.151380
 H     3.603740    -2.155138     0.194315
 C     4.508311     0.959936    -0.838334
 H     4.102035     1.953507    -1.035250
 C     5.581309    -1.571476    -0.375272
 H     6.005809    -2.560938    -0.200753
 C     5.861875     0.731092    -1.072568
 H     6.507168     1.529726    -1.441574
 C     6.392624    -0.534320    -0.832627
Cl     8.075540    -0.824032    -1.113885
 C     2.072073     3.006860     0.428513
 H     2.548436     2.787532     1.385852
 C     1.089733     2.303226    -1.656618
 H     0.781181     1.484519    -2.317546
 C     1.853941     4.339194     0.089073
 H     2.149946     5.144594     0.763189
 C     0.869574     3.630668    -2.012072
 H     0.405834     3.886551    -2.966206
 C     1.242787     4.643632    -1.127498
Cl     0.948921     6.295503    -1.543491
 H    -1.828373     2.017081    -1.628519
 H    -2.321995     0.605083    -2.547959
 C    -3.894330     1.457936    -1.335404
 C    -4.222783     2.537864    -0.506222
 H    -3.422171     3.155935    -0.094603
 C    -4.928492     0.669024    -1.884686
 C    -4.635804    -0.489762    -2.791861
 H    -4.041912    -1.265139    -2.283659
 H    -4.061158    -0.183172    -3.680258
 H    -5.565965    -0.958076    -3.140489
 C    -5.545444     2.828840    -0.185063
 H    -5.775643     3.672677     0.469416
 C    -6.252259     0.981499    -1.557092
 H    -7.055004     0.369739    -1.977498
 C    -6.567078     2.040222    -0.709181
 H    -7.610740     2.254854    -0.467420
 C    -2.681249    -2.573496    -0.115402
 H    -1.733186    -2.880891    -0.565358
 C    -4.109181    -0.826223     0.736516
 H    -4.300450     0.223286     0.967591
 C    -3.648372    -3.526611     0.191886
 H    -3.476288    -4.584722    -0.010576
 C    -5.084621    -1.767636     1.044324
 H    -6.029264    -1.462703     1.496824
 C    -4.850171    -3.114228     0.763874
Cl    -6.064898    -4.286781     1.141727
 C    -1.119322     2.392523     1.083576
 H    -0.913595     2.854284     0.116771
 C    -1.781057     0.517548     2.432744
 H    -2.124783    -0.514103     2.529138
 C    -0.937294     3.161263     2.228761
 H    -0.608151     4.198597     2.152646
 C    -1.595270     1.270934     3.587873
 H    -1.781104     0.838086     4.572021
 C    -1.168575     2.593655     3.480159
Cl    -0.926800     3.538693     4.908353
