  80
scf done:    -1994.655467
 C    -1.836744    -2.635501    -0.011221
 H    -1.875034    -3.438010     0.744191
 H    -2.796578    -2.106029     0.111497
 C    -1.787344    -3.259032    -1.402886
 H    -0.894731    -3.891523    -1.530483
 H    -2.670204    -3.893152    -1.609580
 H    -1.745626    -2.498650    -2.202374
Ir    -0.084509    -1.405316     0.215898
 C    -2.804355     0.323664    -1.206515
 C    -2.809731     0.043163     1.750288
 C    -1.320844     2.194773     0.451072
 C     2.905522     0.460037     1.213932
 C     3.233851    -1.941171    -0.452236
 C     2.152910     0.588923    -1.684780
 P     2.059146    -0.503707    -0.169128
 P    -1.672054     0.367435     0.284732
 C     0.636777    -2.917575     0.971052
 O     0.989482    -3.827781     1.593294
 H    -2.876396    -0.739119    -1.472465
 H    -2.236805     0.807970    -2.015145
 C    -4.170276     0.917373    -1.065828
 C    -4.404553     2.284670    -1.264623
 H    -3.582904     2.932906    -1.578926
 C    -5.251840     0.107299    -0.694529
 H    -5.092162    -0.966077    -0.558419
 C    -5.670796     2.830459    -1.064850
 H    -5.830588     3.899943    -1.222278
 C    -6.518342     0.650064    -0.493209
 H    -7.345867    -0.000060    -0.199069
 C    -6.731565     2.016739    -0.669158
 H    -7.723869     2.444617    -0.509295
 H    -3.476498    -0.736442     1.347214
 C    -2.058630    -0.569818     2.928946
 H    -2.777949    -0.910613     3.690975
 H    -1.444288    -1.422331     2.605594
 H    -1.386882     0.157858     3.409518
 C    -3.684079     1.210149     2.199862
 H    -4.260105     1.662964     1.382762
 H    -4.407443     0.845611     2.946767
 H    -3.094749     2.000937     2.688168
 H    -2.307028     2.661160     0.611309
 C    -0.455038     2.446956     1.678668
 H    -0.209139     3.517367     1.767979
 H    -0.949359     2.139878     2.609836
 H     0.486536     1.884670     1.611764
 C    -0.706130     2.814126    -0.795238
 H    -1.349261     2.723827    -1.681633
 H    -0.525147     3.888516    -0.630451
 H     0.257135     2.350642    -1.042396
 H     3.455236    -0.294177     1.796954
 H     2.074524     0.783212     1.855094
 C     3.781700     1.630334     0.876841
 C     3.213004     2.860329     0.513081
 H     2.126950     2.972401     0.515880
 C     5.179529     1.544821     0.914745
 H     5.653580     0.612508     1.227891
 C     4.007986     3.946158     0.155967
 H     3.536908     4.890202    -0.128716
 C     5.979210     2.630109     0.562567
 H     7.067035     2.533626     0.599970
 C     5.397349     3.833691     0.169123
 H     6.023100     4.683854    -0.111833
 H     3.007825    -2.566431     0.428126
 C     2.809519    -2.733253    -1.685779
 H     3.304570    -3.717206    -1.691339
 H     1.720698    -2.898121    -1.698545
 H     3.092841    -2.218260    -2.616308
 C     4.734621    -1.681493    -0.429926
 H     5.064751    -1.254013     0.525635
 H     5.265694    -2.639964    -0.549939
 H     5.072677    -1.015415    -1.233608
 H     1.859189     1.565012    -1.266690
 C     3.511259     0.785136    -2.347483
 H     3.424689     1.557284    -3.129318
 H     4.282956     1.117855    -1.641039
 H     3.859418    -0.134464    -2.839593
 C     1.092094     0.178963    -2.703326
 H     0.112569     0.023839    -2.224591
 H     0.986697     0.957257    -3.476580
 H     1.357617    -0.760774    -3.208432
