  94
scf done:    -2826.145191
 C     1.296478    -3.638272     0.446284
 H     0.984469    -4.529109    -0.122376
 H     2.266858    -3.359246    -0.002724
 C     1.500193    -4.002570     1.913014
 H     0.568416    -4.365901     2.374224
 H     2.255783    -4.800724     2.043557
 H     1.832860    -3.135397     2.505682
Ir    -0.184890    -2.074151     0.298973
 C     2.572605    -0.961926    -1.478208
 O     1.298098     0.905649     0.175094
 O     2.789241    -0.879943     1.276628
 C    -1.629293     0.635164     1.982950
 O    -1.592563     0.694927    -0.797525
 O    -3.296710    -0.759950     0.511590
 P    -1.677766    -0.382281     0.453860
 P     1.635618    -0.714626     0.103776
 C    -1.400428    -3.483608    -0.009935
 O    -2.032792    -4.402074    -0.275323
 H     3.521768    -1.448942    -1.207254
 H     1.967428    -1.709507    -2.011810
 C     2.820587     0.256079    -2.318258
 C     4.078472     0.866303    -2.306847
 H     4.870362     0.435952    -1.689648
 C     1.796958     0.786145    -3.131953
 C     0.460300     0.116834    -3.226710
 H    -0.029542     0.024667    -2.246172
 H     0.555111    -0.902685    -3.635703
 H    -0.218160     0.680630    -3.881271
 C     4.333260     2.010120    -3.058853
 H     5.323032     2.471413    -3.032314
 C     2.066517     1.943400    -3.871373
 H     1.273834     2.362186    -4.497372
 C     3.316914     2.559373    -3.835920
 H     3.497529     3.460799    -4.426470
 C     2.062708     1.935735     0.655526
 C     2.466880     2.941079    -0.220329
 H     2.224472     2.855666    -1.280195
 C     2.354611     2.015749     2.018855
 H     2.030794     1.214794     2.684743
 C     3.182124     4.029124     0.275038
 H     3.502366     4.814775    -0.413231
 C     3.073499     3.107170     2.500552
 H     3.307945     3.166969     3.565832
 C     3.491160     4.115914     1.632465
 H     4.054049     4.970242     2.014511
 C     4.151523    -1.005904     1.145741
 C     4.963839     0.112623     0.957392
 H     4.515490     1.103170     0.882847
 C     4.711785    -2.279318     1.255763
 H     4.053636    -3.133975     1.416991
 C     6.345294    -0.054611     0.869259
 H     6.979707     0.822773     0.722469
 C     6.093240    -2.432571     1.164651
 H     6.528960    -3.430729     1.249710
 C     6.914942    -1.322883     0.968545
 H     7.997669    -1.446401     0.897116
 H    -1.727734    -0.121395     2.779018
 H    -0.593644     0.999980     2.023853
 C    -2.638321     1.737022     2.149070
 C    -3.965701     1.408098     2.450096
 H    -4.232271     0.357231     2.575312
 C    -2.278198     3.092406     2.001558
 C    -0.861754     3.509535     1.742641
 H    -0.438427     3.006831     0.863070
 H    -0.205644     3.271703     2.595502
 H    -0.797046     4.591176     1.564620
 C    -4.945396     2.388721     2.561467
 H    -5.976384     2.107038     2.788337
 C    -3.277958     4.064180     2.114385
 H    -3.003944     5.114302     1.983773
 C    -4.601024     3.726182     2.381347
 H    -5.360047     4.508466     2.458040
 C    -2.240663     1.869945    -1.071555
 C    -3.620358     2.024015    -0.930294
 H    -4.224176     1.205616    -0.541258
 C    -1.454715     2.909310    -1.571510
 H    -0.381065     2.747353    -1.683909
 C    -4.201097     3.245661    -1.259533
 H    -5.278041     3.372624    -1.128974
 C    -2.051051     4.123257    -1.902000
 H    -1.432973     4.938932    -2.285170
 C    -3.424833     4.299271    -1.740933
 H    -3.890578     5.254225    -1.993642
 C    -3.897651    -1.634298    -0.351188
 C    -4.882446    -2.472025     0.172468
 H    -5.115263    -2.408443     1.236888
 C    -3.564800    -1.687671    -1.706630
 H    -2.797711    -1.022825    -2.106075
 C    -5.529116    -3.377022    -0.663003
 H    -6.294674    -4.038157    -0.250208
 C    -4.215190    -2.605004    -2.529539
 H    -3.947695    -2.654868    -3.587569
 C    -5.194593    -3.451816    -2.015395
 H    -5.696796    -4.170327    -2.666494
