 100
scf done:    -2904.591674
 C    -1.735550    -2.484373    -2.449867
 H    -1.497581    -3.552686    -2.296341
 H    -2.717610    -2.351571    -1.958966
 C    -1.881673    -2.224696    -3.947152
 H    -0.955905    -2.466275    -4.493165
 H    -2.692018    -2.825428    -4.401088
 H    -2.100971    -1.167420    -4.171065
Ir    -0.194588    -1.362392    -1.457424
 C    -3.165011     0.448338    -1.864820
 C    -2.951489    -1.030461     0.692326
 C    -1.607347     1.508424     0.277616
 C     1.069536    -0.276972     1.607139
 C     3.036205    -1.383016    -0.130706
 C     2.100513     1.268905    -0.737908
 P     1.505423    -0.378569    -0.207060
 P    -1.981838    -0.092656    -0.528283
 C     1.014725    -2.282472    -2.518749
 O     1.739665    -2.816307    -3.238165
 H    -3.314636    -0.434406    -2.498550
 H    -2.594559     1.178100    -2.459442
 C    -4.469511     1.003945    -1.392634
 C    -4.580531     2.320722    -0.925507
 H    -3.707631     2.976797    -0.950937
 C    -5.603350     0.182645    -1.353829
 H    -5.526633    -0.847887    -1.710579
 C    -5.787110     2.792517    -0.412984
 H    -5.853853     3.820080    -0.047218
 C    -6.811804     0.655025    -0.847933
 H    -7.683424    -0.003363    -0.822640
 C    -6.905915     1.960438    -0.367585
 H    -7.851257     2.331927     0.035045
 C    -4.086403    -0.536195     1.362492
 H    -4.448843     0.474472     1.168236
 C    -2.521841    -2.329443     0.983524
 H    -1.639169    -2.715441     0.459619
 C    -4.760134    -1.321049     2.283187
 H    -5.642355    -0.947420     2.805984
 C    -3.192394    -3.127952     1.907578
 H    -2.827372    -4.136040     2.104034
 C    -4.322065    -2.624991     2.562931
 O    -5.041907    -3.309889     3.468870
 C    -4.655291    -4.616738     3.793983
 H    -3.640875    -4.647785     4.228780
 H    -5.372757    -4.980059     4.540401
 H    -4.685554    -5.283811     2.914773
 C    -1.857304     1.804956     1.624813
 H    -2.362560     1.076825     2.261822
 C    -0.943375     2.467406    -0.493015
 H    -0.721099     2.263269    -1.542294
 C    -1.443414     3.009628     2.177041
 H    -1.625491     3.241086     3.228224
 C    -0.517044     3.676698     0.045989
 H     0.025602     4.375874    -0.590025
 C    -0.754061     3.949043     1.398319
 O    -0.342294     5.064735     2.029345
 C     0.423152     5.994651     1.313260
 H    -0.143528     6.435088     0.474136
 H     0.689425     6.792298     2.018176
 H     1.346832     5.537744     0.916059
 H     0.820162    -1.324591     1.841149
 H     0.130214     0.288704     1.649829
 C     2.057477     0.276481     2.586588
 C     1.849202     1.544240     3.148314
 H     0.956285     2.108419     2.869048
 C     3.206051    -0.435845     2.958837
 H     3.381868    -1.431276     2.545926
 C     2.771160     2.096380     4.034474
 H     2.587216     3.087255     4.457477
 C     4.131221     0.118122     3.841196
 H     5.024327    -0.450632     4.111484
 C     3.921747     1.387707     4.378884
 H     4.648765     1.818945     5.071327
 C     4.330095    -0.858552    -0.243836
 H     4.471710     0.205665    -0.440646
 C     2.896466    -2.754950     0.099584
 H     1.892122    -3.186773     0.155288
 C     5.443631    -1.675558    -0.111448
 H     6.454932    -1.274948    -0.202870
 C     4.004747    -3.585550     0.246563
 H     3.853379    -4.650529     0.423702
 C     5.293000    -3.044835     0.143070
 O     6.428766    -3.759224     0.263211
 C     6.338994    -5.137000     0.493781
 H     5.813633    -5.657617    -0.326177
 H     7.367856    -5.514388     0.551273
 H     5.823468    -5.362479     1.444299
 C     1.774646     1.654039    -2.049354
 H     1.194522     0.955840    -2.663211
 C     2.846710     2.157646     0.041373
 H     3.148688     1.887481     1.052679
 C     2.147150     2.891396    -2.550010
 H     1.892769     3.195366    -3.567244
 C     3.220499     3.410706    -0.445550
 H     3.796659     4.076129     0.198246
 C     2.862414     3.789437    -1.744432
 O     3.159215     4.982080    -2.297379
 C     3.904773     5.904858    -1.554830
 H     4.897231     5.506634    -1.280217
 H     4.040137     6.787438    -2.192654
 H     3.380839     6.210566    -0.631244
