  86
scf done:    -2073.248405
 C     1.050506    -3.246895    -0.297490
 H     0.449177    -4.160861    -0.427301
 H     1.700681    -3.214490    -1.187802
 C     1.893451    -3.407734     0.964664
 H     1.265514    -3.461833     1.868877
 H     2.509312    -4.326702     0.945585
 H     2.591314    -2.566805     1.121897
Ir    -0.214800    -1.528503    -0.140613
 C     2.484342     0.502470     1.080874
 C     3.030635    -0.939050    -1.464617
 C     1.317937     1.361754    -1.448575
 C    -2.350669     1.268797    -0.914638
 C    -3.248016    -0.487434     1.207629
 C    -1.142531     1.440164     1.690610
 P    -1.691785     0.172869     0.461288
 P     1.687681    -0.154622    -0.473066
 C    -1.648170    -2.611112    -0.565143
 O    -2.539528    -3.232905    -0.962566
 H     1.680051     1.089987     1.545449
 H     2.620225    -0.379054     1.722890
 C     3.730803     1.328071     0.984405
 C     3.628786     2.689292     0.670772
 H     2.636103     3.128935     0.541824
 C     5.008830     0.769245     1.200040
 C     5.184840    -0.672546     1.581021
 H     4.814969    -1.355102     0.800890
 H     4.636980    -0.921306     2.504038
 H     6.244624    -0.906333     1.749907
 C     4.757169     3.490751     0.523430
 H     4.648413     4.548410     0.272482
 C     6.132580     1.589258     1.052472
 H     7.123473     1.156713     1.215899
 C     6.019770     2.933854     0.706669
 H     6.917126     3.546720     0.594765
 H     3.478269    -1.711009    -0.818964
 H     2.501465    -1.503877    -2.249550
 C     4.104771    -0.054011    -2.088387
 H     4.556727     0.604036    -1.332255
 H     3.643061     0.613891    -2.834017
 C     5.193823    -0.877754    -2.759316
 H     5.714489    -1.517866    -2.028977
 H     4.778188    -1.538034    -3.537369
 H     5.949026    -0.232986    -3.233759
 H     0.627202     1.970268    -0.841226
 H     2.239066     1.954595    -1.569595
 C     0.691344     1.040356    -2.800401
 H    -0.163176     0.361493    -2.640251
 H     1.410371     0.466289    -3.408741
 C     0.262096     2.282503    -3.564070
 H    -0.494706     2.856800    -3.005741
 H     1.114812     2.955216    -3.749832
 H    -0.175644     2.021711    -4.539454
 H    -1.599016     2.063572    -1.035105
 H    -2.300195     0.651430    -1.820324
 C    -3.715041     1.850465    -0.715613
 C    -3.876071     3.017032     0.042682
 H    -2.987568     3.525526     0.426895
 C    -4.857611     1.219922    -1.255044
 C    -4.747133     0.009842    -2.139834
 H    -4.228301    -0.832786    -1.657287
 H    -4.183575     0.237817    -3.059581
 H    -5.741847    -0.344983    -2.441762
 C    -5.135978     3.547086     0.306512
 H    -5.232918     4.458130     0.901738
 C    -6.115979     1.765410    -0.979169
 H    -7.002262     1.277080    -1.393705
 C    -6.265515     2.910536    -0.200441
 H    -7.262648     3.310278    -0.001843
 H    -3.883018     0.352547     1.533299
 H    -3.778782    -0.964709     0.368069
 C    -3.062816    -1.516273     2.319695
 H    -2.798612    -1.008426     3.260781
 H    -2.204963    -2.165701     2.074301
 C    -4.308725    -2.362788     2.528705
 H    -5.188215    -1.738513     2.755435
 H    -4.538541    -2.946743     1.623202
 H    -4.178132    -3.072690     3.359606
 H    -0.382122     2.054600     1.175864
 H    -1.988576     2.112253     1.911412
 C    -0.561165     0.869425     2.979536
 H     0.127998     0.042546     2.735177
 H    -1.366879     0.410485     3.571897
 C     0.146676     1.920153     3.821163
 H     0.998332     2.366479     3.281306
 H    -0.535582     2.742035     4.090916
 H     0.538076     1.490526     4.755610
