 100
scf done:    -2904.735864
 C    -0.138549     2.980928    -1.202415
 H    -0.294511     3.108841    -2.287155
 H    -1.101201     3.245347    -0.735267
 C     0.952542     3.930054    -0.721960
 H     1.904080     3.764018    -1.252371
 H     0.671023     4.988703    -0.872381
 H     1.159955     3.803749     0.351216
Ir     0.453108     0.978369    -0.708817
 C    -1.469404     1.135899     2.289232
 O    -2.844789     1.412044     0.090952
 O    -1.872290    -0.936934     0.496869
 C     0.931400    -2.622641    -0.390765
 O     2.979222    -1.036901     0.039817
 O     1.062943    -0.985716     1.798739
 P     1.323736    -0.919676     0.149630
 P    -1.432233     0.671164     0.517107
 C     1.592847     1.049208    -2.215904
 O     2.163223     1.026808    -3.211818
 H    -0.996473     0.292052     2.812369
 H    -2.519180     1.222075     2.604690
 C    -0.697802     2.399701     2.537351
 C    -1.270034     3.652665     2.291915
 H    -2.295498     3.710766     1.917704
 C     0.623546     2.336766     2.993474
 H     1.073347     1.358283     3.179989
 C    -0.541620     4.818185     2.516916
 H    -1.000586     5.789898     2.320807
 C     1.352443     3.502652     3.219239
 H     2.380885     3.437158     3.583255
 C     0.770306     4.747179     2.984134
 H     1.340487     5.662385     3.158866
 C    -3.494502     1.269833    -1.117287
 C    -2.814027     1.237981    -2.332040
 H    -1.723660     1.310186    -2.333848
 C    -4.892229     1.165960    -1.049552
 C    -5.592341     1.201946     0.272867
 H    -5.304348     0.340387     0.895305
 H    -5.326176     2.107719     0.839064
 H    -6.682345     1.180789     0.140247
 C    -3.533855     1.088063    -3.516328
 H    -2.999095     1.060598    -4.468477
 C    -5.584578     1.017591    -2.254334
 H    -6.674131     0.931699    -2.222720
 C    -4.920839     0.974626    -3.479911
 H    -5.489903     0.856094    -4.404667
 C    -3.093963    -1.470040     0.841621
 C    -3.557418    -1.425231     2.156667
 H    -2.953074    -0.950908     2.928926
 C    -3.816481    -2.132248    -0.164747
 C    -3.270504    -2.249637    -1.552474
 H    -3.078798    -1.261542    -1.994869
 H    -2.312940    -2.793181    -1.557014
 H    -3.972467    -2.786685    -2.203510
 C    -4.784372    -2.000839     2.481937
 H    -5.144643    -1.958145     3.512096
 C    -5.046016    -2.694863     0.190741
 H    -5.627665    -3.203247    -0.582642
 C    -5.537579    -2.627133     1.493170
 H    -6.503211    -3.075584     1.736279
 H    -0.141605    -2.747833    -0.181911
 H     1.491745    -3.338054     0.229242
 C     1.235533    -2.788209    -1.850700
 C     2.320339    -3.564690    -2.268897
 H     2.932687    -4.075651    -1.521404
 C     0.466145    -2.126787    -2.817442
 H    -0.367469    -1.495476    -2.499162
 C     2.629065    -3.684764    -3.622348
 H     3.479648    -4.296683    -3.932215
 C     0.779245    -2.239846    -4.169560
 H     0.175930    -1.708821    -4.909499
 C     1.861369    -3.019122    -4.576737
 H     2.107467    -3.106150    -5.637609
 C     3.750429     0.097699    -0.069654
 C     3.526976     1.201684     0.752565
 H     2.732258     1.166860     1.498529
 C     4.748843     0.102973    -1.052687
 C     4.923579    -1.075130    -1.958726
 H     5.024279    -2.010541    -1.388547
 H     4.044746    -1.201240    -2.611197
 H     5.809571    -0.952973    -2.596342
 C     4.303463     2.347091     0.597620
 H     4.109310     3.217533     1.227993
 C     5.524015     1.260266    -1.174232
 H     6.305607     1.286859    -1.938260
 C     5.307923     2.375605    -0.366113
 H     5.921947     3.269504    -0.495701
 C     1.094704    -2.102949     2.601966
 C    -0.069148    -2.859507     2.734764
 H    -0.952468    -2.565527     2.166881
 C     2.259121    -2.413599     3.320914
 C     3.494371    -1.576146     3.196104
 H     3.937250    -1.667474     2.193609
 H     3.268722    -0.508742     3.340686
 H     4.246377    -1.874509     3.938604
 C    -0.087922    -3.965334     3.579983
 H    -1.001375    -4.556202     3.677774
 C     2.209282    -3.528812     4.165206
 H     3.103867    -3.788377     4.737858
 C     1.058430    -4.303846     4.295286
 H     1.056859    -5.168205     4.963019
