  76
scf done:    -3980.049545
 C     1.283369    -3.006838     0.817557
 H     1.635474    -3.742177     0.073080
 H     2.205365    -2.575290     1.240976
 C     0.515959    -3.731397     1.917604
 H    -0.357320    -4.274182     1.522072
 H     1.148723    -4.469253     2.444892
 H     0.132688    -3.036426     2.683963
Ir     0.050009    -1.512908    -0.092998
 C     1.879249     0.738477     2.080119
 C     3.417484    -0.541746    -0.039604
 C     1.675033     1.572778    -0.665568
 C    -1.607066     1.429175    -1.708381
 C    -3.299973    -0.554056    -0.594040
 C    -1.644732     0.995811     1.178237
 P    -1.594692     0.102635    -0.422272
 P     1.736854     0.063637     0.376480
 C    -0.833855    -2.912314    -0.926280
 O    -1.275161    -3.784605    -1.539286
 H     2.701799     1.471927     2.125897
 H     0.945635     1.297537     2.253457
 C     2.037417    -0.332150     3.151224
 H     2.940892    -0.931724     2.949709
 H     1.190520    -1.033284     3.079449
 C     2.111538     0.263087     4.548345
 H     2.984738     0.926705     4.655305
 H     1.215983     0.861175     4.780075
 H     2.197551    -0.523762     5.312602
 C     3.544243    -1.574906    -0.974311
 H     2.635252    -2.041852    -1.366428
 C     4.574295     0.044598     0.484850
 H     4.506115     0.859811     1.208660
 C     4.798629    -2.015861    -1.383794
 H     4.898873    -2.823096    -2.110918
 C     5.834996    -0.394335     0.092762
 H     6.739357     0.056665     0.504073
 C     5.938768    -1.422817    -0.843785
Cl     7.504085    -1.969583    -1.337827
 C     1.461174     2.856114    -0.154488
 H     1.390167     3.021993     0.921031
 C     1.771650     1.407353    -2.054665
 H     1.934165     0.408709    -2.468391
 C     1.303437     3.947248    -1.008788
 H     1.118376     4.946555    -0.611182
 C     1.630972     2.487565    -2.916281
 H     1.693976     2.355425    -3.997426
 C     1.375716     3.753626    -2.385786
Cl     1.129421     5.094849    -3.450925
 H    -0.750930     2.082183    -1.483487
 H    -1.335529     0.914600    -2.645027
 C    -2.880757     2.243060    -1.895561
 H    -3.210511     2.664096    -0.930790
 H    -3.697792     1.577350    -2.216372
 C    -2.690208     3.360555    -2.910950
 H    -1.890483     4.054828    -2.606509
 H    -2.405998     2.956674    -3.895755
 H    -3.612764     3.945501    -3.044119
 C    -3.577906    -1.381452    -1.690097
 H    -2.781158    -1.656546    -2.385368
 C    -4.339744    -0.228015     0.282142
 H    -4.151687     0.423627     1.137932
 C    -4.859764    -1.872308    -1.910537
 H    -5.072311    -2.518866    -2.763229
 C    -5.626163    -0.722733     0.079726
 H    -6.435703    -0.472370     0.767232
 C    -5.879719    -1.541714    -1.018101
Cl    -7.476393    -2.157173    -1.277410
 C    -1.506843     2.379995     1.317148
 H    -1.475463     3.023817     0.437230
 C    -1.673738     0.203073     2.338787
 H    -1.759549    -0.883541     2.240663
 C    -1.377403     2.963816     2.577967
 H    -1.254442     4.042884     2.684744
 C    -1.560894     0.772657     3.600728
 H    -1.577318     0.153091     4.498692
 C    -1.397480     2.154973     3.711572
Cl    -1.193263     2.865201     5.276679
