 106
scf done:    -2983.297661
 C     2.856113    -2.206920    -1.522706
 H     2.472522    -2.714629    -2.427043
 H     3.448318    -1.354258    -1.897978
 C     3.797365    -3.141221    -0.768428
 H     3.313012    -4.096996    -0.512874
 H     4.696262    -3.384791    -1.363625
 H     4.146784    -2.697431     0.176093
Ir     1.095593    -1.551049    -0.450862
 C     1.954520     1.310025    -2.462639
 O     1.215923     1.711183     0.177889
 O     3.530115     0.770794    -0.486967
 C    -0.608820    -0.138380     2.289425
 O    -1.566941     0.310451    -0.300534
 O    -1.951582    -1.957602     0.908740
 P    -0.773308    -0.830714     0.592620
 P     1.916084     0.568648    -0.787096
 C     0.778964    -3.368240    -0.073140
 O     0.640411    -4.470913     0.209033
 H     2.652092     2.158589    -2.414506
 H     2.432875     0.530141    -3.077444
 C     0.626250     1.736552    -3.022765
 C     0.305230     3.099031    -3.031976
 H     1.017892     3.816092    -2.616881
 C    -0.280779     0.805434    -3.572720
 C     0.035129    -0.656346    -3.631563
 H     0.161203    -1.097847    -2.617013
 H     0.978933    -0.849084    -4.167270
 H    -0.761386    -1.215361    -4.140975
 C    -0.897134     3.556078    -3.564735
 H    -1.122013     4.625030    -3.562580
 C    -1.488287     1.283607    -4.094947
 H    -2.195963     0.566271    -4.518806
 C    -1.801438     2.640179    -4.096317
 H    -2.752808     2.979227    -4.512841
 C     1.381300     3.075159     0.119456
 C     0.231589     3.854916     0.236181
 H    -0.732010     3.357510     0.339480
 C     2.626833     3.682463    -0.027939
 H     3.527019     3.072261    -0.101613
 C     0.328382     5.239493     0.189558
 H    -0.583375     5.837438     0.274243
 C     2.702189     5.074601    -0.083994
 H     3.681832     5.544215    -0.207975
 C     1.564198     5.879550     0.021698
 C     1.659236     7.377204    -0.010944
 H     0.850886     7.819084    -0.612838
 H     2.618322     7.711520    -0.430992
 H     1.576743     7.801678     1.003442
 C     4.203382     0.129889     0.524475
 C     5.546702    -0.162824     0.304970
 H     5.997131     0.110805    -0.650726
 C     3.598790    -0.203822     1.733860
 H     2.551037     0.042698     1.910941
 C     6.278487    -0.811798     1.293336
 H     7.331248    -1.043786     1.110627
 C     4.344523    -0.864015     2.707842
 H     3.861291    -1.132506     3.651067
 C     5.690548    -1.186816     2.508160
 C     6.473577    -1.934870     3.547797
 H     6.474156    -3.017538     3.337665
 H     6.046607    -1.796502     4.551451
 H     7.523616    -1.608220     3.575468
 H     0.134591    -0.822795     2.731327
 H    -0.084309     0.812525     2.115530
 C    -1.796707    -0.007312     3.199242
 C    -2.341066    -1.171580     3.758141
 H    -1.886360    -2.133509     3.513249
 C    -2.365961     1.241214     3.521066
 C    -1.849246     2.528331     2.952464
 H    -2.151089     2.633639     1.897708
 H    -0.751998     2.600195     2.988756
 H    -2.259388     3.389170     3.497772
 C    -3.451166    -1.126211     4.593364
 H    -3.860923    -2.049805     5.008855
 C    -3.477693     1.268399     4.371849
 H    -3.922161     2.236120     4.619970
 C    -4.028018     0.104844     4.899055
 H    -4.898820     0.160441     5.556765
 C    -2.735860     0.988553    -0.081982
 C    -3.776104     0.516685     0.718402
 H    -3.692418    -0.442897     1.226230
 C    -2.860953     2.211642    -0.741983
 H    -2.050971     2.540106    -1.393899
 C    -4.912926     1.303830     0.885317
 H    -5.710709     0.934777     1.535455
 C    -4.008293     2.977998    -0.567710
 H    -4.088797     3.937837    -1.086075
 C    -5.053789     2.546077     0.257758
 C    -6.298868     3.366478     0.433203
 H    -6.724378     3.241846     1.439866
 H    -7.077858     3.067553    -0.288377
 H    -6.102294     4.437071     0.276225
 C    -2.386762    -2.866515    -0.019746
 C    -2.768973    -4.124058     0.446042
 H    -2.690660    -4.337581     1.513466
 C    -2.472937    -2.567865    -1.378488
 H    -2.191859    -1.578164    -1.740173
 C    -3.225468    -5.081196    -0.451323
 H    -3.518197    -6.065707    -0.075838
 C    -2.925914    -3.544463    -2.264096
 H    -2.986011    -3.303632    -3.329084
 C    -3.306813    -4.814932    -1.825255
 C    -3.773229    -5.869714    -2.786325
 H    -3.031011    -6.679604    -2.878787
 H    -3.937498    -5.454361    -3.790574
 H    -4.715437    -6.331224    -2.452317
