  90
scf done:    -2922.135396
 C     1.879568    -1.915088    -2.293296
 H     1.644616    -2.034205    -3.363684
 H     2.814872    -1.335931    -2.272768
 C     2.095250    -3.296258    -1.682673
 H     1.190657    -3.921230    -1.758739
 H     2.911611    -3.846808    -2.186118
 H     2.353654    -3.252768    -0.611114
Ir     0.319989    -0.874016    -1.270811
 C     1.931009     0.304409     1.789669
 C     3.677234     0.339904    -0.505303
 C     1.518227     2.205724    -0.390727
 C    -2.573044     1.074400    -1.319123
 C    -2.757332    -1.359436     0.311554
 C    -1.510887     0.958941     1.374175
 P    -1.585772    -0.032027    -0.173715
 P     1.898823     0.440938    -0.077213
 C    -0.749037    -1.457913    -2.657138
 O    -1.382730    -1.713499    -3.588276
 H     2.384615     1.217718     2.196909
 H     0.876933     0.287279     2.100678
 C     2.693603    -0.889888     2.280590
 C     4.007429    -0.708775     2.728158
 H     4.423010     0.302281     2.747015
 C     2.150201    -2.192219     2.246816
 C     0.742303    -2.443357     1.807102
 H     0.579300    -2.152858     0.744755
 H     0.024883    -1.857066     2.400173
 H     0.475916    -3.504445     1.900922
 C     4.798215    -1.783543     3.121836
 H     5.822039    -1.613781     3.462271
 C     2.963237    -3.263646     2.635369
 H     2.547869    -4.274450     2.602456
 C     4.274872    -3.072285     3.063315
 H     4.882867    -3.930580     3.358848
 C     4.395140     1.438260    -0.993204
 H     3.898945     2.400073    -1.132698
 C     4.341210    -0.889243    -0.367303
 H     3.801744    -1.768405    -0.012776
 C     5.745819     1.325849    -1.314492
 H     6.314434     2.175695    -1.695966
 C     5.690038    -1.012791    -0.678452
 H     6.212803    -1.964059    -0.568006
 C     6.377315     0.100510    -1.146695
 F     7.668383    -0.011580    -1.447889
 C     0.829075     2.517847    -1.570880
 H     0.542283     1.692294    -2.232914
 C     1.888832     3.245122     0.469794
 H     2.441248     3.038043     1.388165
 C     0.488854     3.832953    -1.874972
 H    -0.051113     4.089334    -2.788359
 C     1.552317     4.565177     0.181860
 H     1.826005     5.384923     0.848570
 C     0.849192     4.840538    -0.986208
 F     0.520161     6.097973    -1.260855
 H    -2.007779     2.018401    -1.345638
 H    -2.448428     0.618811    -2.310087
 C    -4.012624     1.302422    -0.984931
 C    -4.371468     2.319016    -0.090758
 H    -3.594222     2.971381     0.312801
 C    -5.017523     0.468657    -1.522191
 C    -4.692387    -0.627350    -2.494015
 H    -4.026636    -1.382293    -2.047638
 H    -4.179566    -0.245252    -3.390901
 H    -5.605307    -1.140880    -2.824203
 C    -5.693212     2.503489     0.304533
 H    -5.946897     3.299432     1.008510
 C    -6.341544     0.674487    -1.119791
 H    -7.121382     0.028100    -1.531492
 C    -6.684515     1.670594    -0.209197
 H    -7.727122     1.802115     0.089893
 C    -3.962775    -1.087564     0.979750
 H    -4.217112    -0.065422     1.265525
 C    -2.451513    -2.688013    -0.010769
 H    -1.505420    -2.903451    -0.514850
 C    -4.850257    -2.111471     1.290418
 H    -5.795016    -1.911132     1.798465
 C    -3.329827    -3.723182     0.298404
 H    -3.102272    -4.760964     0.049154
 C    -4.523743    -3.417171     0.938862
 F    -5.372811    -4.397064     1.233758
 C    -1.654623     0.345366     2.627828
 H    -1.923477    -0.710888     2.687583
 C    -1.180485     2.320844     1.341324
 H    -1.050460     2.836672     0.388867
 C    -1.465735     1.057085     3.809041
 H    -1.574790     0.581452     4.785245
 C    -0.995953     3.048246     2.513282
 H    -0.738526     4.108396     2.487582
 C    -1.135507     2.404698     3.736428
 F    -0.953236     3.093558     4.859231
