 108
scf done:    -3057.724525
 C     1.288555    -0.514507    -2.880719
 H     1.406134     0.356102    -3.551171
 H     2.296293    -0.717171    -2.488496
 C     0.820516    -1.700296    -3.717876
 H    -0.125668    -1.487653    -4.242729
 H     1.559625    -1.988714    -4.490349
 H     0.640697    -2.592568    -3.098295
Ir    -0.044813     0.013972    -1.293157
 C     1.445475    -1.041549     1.912720
 C     3.234520    -1.090409    -0.220747
 C     2.216850     1.582440     0.678710
 C    -1.501495     1.408781     1.794563
 C    -3.307778     1.005688    -0.304023
 C    -2.092152    -1.411611     0.927257
 P    -1.722196     0.302497     0.333146
 P     1.736794    -0.161964     0.317829
 C    -1.169862     0.523568    -2.641852
 O    -1.831129     0.913124    -3.511941
 H     0.654781    -0.509043     2.451041
 H     1.015551    -2.003572     1.593078
 C     2.670383    -1.260113     2.790070
 H     3.200696    -0.305502     2.929774
 H     3.375177    -1.927530     2.269106
 C     2.315082    -1.853366     4.143994
 H     1.670425    -1.171287     4.721589
 H     1.771503    -2.806157     4.031956
 H     3.213627    -2.052308     4.748533
 C     4.561742    -0.634405    -0.201774
 O     4.788250     0.554202     0.385156
 C     6.017185     1.195109     0.216879
 H     5.906785     2.194535     0.658255
 H     6.837188     0.664906     0.733276
 H     6.279098     1.301310    -0.850561
 C     2.989611    -2.399185    -0.681837
 O     1.715534    -2.816016    -0.567271
 C     1.355676    -4.118275    -0.931484
 H     0.280381    -4.202728    -0.727019
 H     1.901478    -4.869058    -0.333172
 H     1.536832    -4.307721    -2.002736
 C     4.015134    -3.194685    -1.202561
 H     3.810062    -4.196707    -1.577097
 C     5.594949    -1.417001    -0.738009
 H     6.621735    -1.052808    -0.740993
 C     5.307114    -2.681104    -1.239023
 H     6.114849    -3.290240    -1.651902
 C     1.992803     2.270275     1.884426
 O     1.582269     1.550358     2.952794
 C     1.393380     2.181283     4.185704
 H     1.086305     1.397036     4.890148
 H     2.324186     2.646518     4.554290
 H     0.600089     2.946248     4.141202
 C     2.691988     2.333683    -0.418693
 O     2.971346     1.625690    -1.520184
 C     3.296278     2.277274    -2.713324
 H     3.426113     1.490761    -3.465653
 H     4.234576     2.853173    -2.621135
 H     2.485789     2.951652    -3.037732
 C     2.881687     3.716443    -0.339267
 H     3.236328     4.279103    -1.201743
 C     2.187379     3.657427     1.973571
 H     1.997467     4.182895     2.907859
 C     2.618533     4.366353     0.861519
 H     2.759932     5.447353     0.933905
 H    -0.684749     1.002141     2.401640
 H    -1.121966     2.336941     1.336613
 C    -2.740915     1.687539     2.633154
 H    -3.224552     0.736539     2.903945
 H    -3.473061     2.239123     2.022082
 C    -2.426796     2.481781     3.891304
 H    -1.749092     1.923238     4.557582
 H    -1.935186     3.438572     3.648589
 H    -3.338273     2.713532     4.464220
 C    -4.580902     0.420944    -0.190218
 O    -4.690427    -0.653559     0.613218
 C    -5.799289    -1.494989     0.505135
 H    -5.574849    -2.382353     1.112228
 H    -6.720590    -1.022779     0.890852
 H    -5.969023    -1.809132    -0.539428
 C    -3.207386     2.228878    -0.994068
 O    -1.999721     2.820741    -0.943473
 C    -1.666377     3.829030    -1.856978
 H    -0.592146     4.013750    -1.726720
 H    -2.221516     4.762382    -1.655972
 H    -1.853992     3.503206    -2.893045
 C    -4.301580     2.783154    -1.666447
 H    -4.198440     3.713121    -2.224438
 C    -5.682721     0.964154    -0.864262
 H    -6.662129     0.491895    -0.793101
 C    -5.526798     2.130600    -1.605225
 H    -6.387676     2.552103    -2.129850
 C    -2.454309    -2.330292    -0.082392
 O    -2.812346    -1.785234    -1.254920
 C    -2.767065    -2.542672    -2.431787
 H    -2.926852    -1.837295    -3.256684
 H    -1.781714    -3.019148    -2.560035
 H    -3.560236    -3.310903    -2.456503
 C    -1.852084    -1.928655     2.211241
 O    -1.568390    -1.046310     3.197920
 C    -1.461169    -1.494724     4.517273
 H    -1.299178    -0.601943     5.135846
 H    -0.608018    -2.179783     4.656100
 H    -2.384479    -1.998049     4.853336
 C    -1.890781    -3.310589     2.455332
 H    -1.682852    -3.702200     3.449953
 C    -2.480429    -3.709168     0.146253
 H    -2.749583    -4.397537    -0.654756
 C    -2.188476    -4.187098     1.419895
 H    -2.208197    -5.262277     1.613776
