 102
scf done:    -2682.508090
 C     1.959737    -1.638254    -2.484034
 H     1.727122    -1.594993    -3.560852
 H     2.889653    -1.061556    -2.370062
 C     2.187447    -3.094103    -2.089790
 H     1.287213    -3.707700    -2.257067
 H     3.007091    -3.555612    -2.671772
 H     2.450034    -3.208982    -1.024751
Ir     0.388368    -0.781303    -1.318012
 C     1.975056    -0.065619     1.894093
 C     3.728911     0.326961    -0.376472
 C     1.563143     2.144152     0.033424
 C    -2.475936     1.180621    -1.050083
 C    -2.725454    -1.507501     0.102135
 C    -1.471245     0.551786     1.600184
 P    -1.524384    -0.132177    -0.107586
 P     1.949167     0.350397     0.068394
 C    -0.671895    -1.135510    -2.785079
 O    -1.299422    -1.229373    -3.751183
 H     2.413785     0.783900     2.433869
 H     0.918552    -0.135789     2.189489
 C     2.742812    -1.312786     2.214570
 C     4.046944    -1.189081     2.707394
 H     4.451019    -0.188078     2.880414
 C     2.215137    -2.600821     1.977999
 C     0.817815    -2.798083     1.480770
 H     0.664317    -2.353846     0.471343
 H     0.084728    -2.314059     2.142238
 H     0.563959    -3.864041     1.409796
 C     4.843363    -2.303129     2.952330
 H     5.859910    -2.176369     3.331387
 C     3.034091    -3.710552     2.218516
 H     2.630994    -4.708789     2.027473
 C     4.335968    -3.573593     2.694478
 H     4.948803    -4.460948     2.870264
 C     4.409559    -0.898172    -0.389543
 H     3.890710    -1.822696    -0.134681
 C     4.417217     1.488052    -0.745230
 H     3.894178     2.446436    -0.761734
 C     5.757611    -0.940012    -0.730666
 H     6.282568    -1.897993    -0.726091
 C     5.769493     1.456570    -1.102480
 C     6.478004     2.710820    -1.526705
 H     6.500926     2.797111    -2.625955
 H     5.975631     3.608290    -1.138170
 H     7.521440     2.722898    -1.178185
 C     6.433730     0.225852    -1.080258
 H     7.493110     0.180488    -1.348621
 C     2.010498     3.045670     1.005249
 H     2.611655     2.704361     1.850376
 C     0.824494     2.621856    -1.053693
 H     0.498633     1.891316    -1.804939
 C     1.698488     4.397584     0.889419
 H     2.049409     5.102551     1.646956
 C     0.490196     3.975690    -1.175800
 C    -0.349188     4.450874    -2.325931
 H    -0.197655     5.521453    -2.523903
 H    -0.120344     3.891747    -3.244493
 H    -1.422648     4.303831    -2.117733
 C     0.937442     4.857080    -0.184750
 H     0.694782     5.920813    -0.260927
 H    -1.895507     2.100895    -0.887825
 H    -2.331254     0.911943    -2.104678
 C    -3.920168     1.378343    -0.717558
 C    -4.287214     2.236638     0.326431
 H    -3.508561     2.786059     0.859700
 C    -4.924388     0.671721    -1.415423
 C    -4.590381    -0.252923    -2.548540
 H    -3.957406    -1.089929    -2.215276
 H    -4.037930     0.260448    -3.351378
 H    -5.502536    -0.678296    -2.988276
 C    -5.616976     2.385677     0.710200
 H    -5.876214     3.055614     1.533336
 C    -6.256387     0.841576    -1.021900
 H    -7.035654     0.295832    -1.561197
 C    -6.608572     1.679438     0.033890
 H    -7.657604     1.786448     0.320480
 C    -2.430324    -2.763717    -0.442088
 H    -1.471838    -2.912862    -0.945835
 C    -3.940879    -1.322492     0.773243
 H    -4.168511    -0.357268     1.230908
 C    -3.353885    -3.800405    -0.336765
 H    -3.120935    -4.779630    -0.761657
 C    -4.882808    -2.351121     0.873189
 C    -6.194765    -2.101609     1.557471
 H    -6.045409    -1.705962     2.574142
 H    -6.780360    -1.348692     1.005733
 H    -6.795888    -3.018620     1.631444
 C    -4.572820    -3.591888     0.305359
 H    -5.296456    -4.408932     0.375876
 C    -1.635276    -0.296836     2.702897
 H    -1.898412    -1.345010     2.550882
 C    -1.158001     1.898112     1.832872
 H    -1.013092     2.580270     0.992568
 C    -1.477057     0.193015     3.997313
 H    -1.603560    -0.480141     4.848648
 C    -1.017722     2.408403     3.127141
 C    -0.702583     3.857267     3.358198
 H    -1.349893     4.285387     4.138742
 H     0.339766     3.985700     3.692266
 H    -0.825357     4.447632     2.440414
 C    -1.172408     1.533558     4.209418
 H    -1.062562     1.912764     5.229234
