  92
scf done:    -2996.861750
 C     1.772971    -0.079143    -3.442462
 H     1.368353     0.143064    -4.443064
 H     2.480057     0.746347    -3.241417
 C     2.522741    -1.408227    -3.481372
 H     1.856857    -2.238056    -3.767634
 H     3.356461    -1.396893    -4.207406
 H     2.954438    -1.675442    -2.502712
Ir     0.202325    -0.226441    -1.981393
 C     3.387937     0.558563    -0.410640
 O     1.731073     2.500811    -1.016840
 O     1.042040     0.965069     0.955661
 C    -2.144539     0.691089     0.580198
 O    -2.559297    -1.580913    -0.930292
 O    -0.776391    -1.544793     0.934323
 P    -1.316451    -0.633025    -0.356847
 P     1.615884     0.897184    -0.600823
 C    -1.041880    -0.405635    -3.381528
 O    -1.809372    -0.354718    -4.233586
 H     3.879106     1.438984     0.031308
 H     3.763464     0.466738    -1.442020
 C     3.659122    -0.701353     0.402656
 H     3.292510    -0.551055     1.431068
 H     3.077222    -1.547558    -0.002881
 C     5.141726    -1.083174     0.455073
 H     5.700887    -0.179914     0.765085
 C     5.383538    -2.163466     1.503053
 H     5.009366    -1.856037     2.492166
 H     6.457320    -2.384894     1.602423
 H     4.877309    -3.101209     1.226864
 C     5.671611    -1.527174    -0.903927
 H     6.744112    -1.768636    -0.849517
 H     5.548870    -0.755414    -1.678787
 H     5.143395    -2.431917    -1.247577
 C     0.583288     3.180535    -1.371875
 C    -0.135362     3.866082    -0.395196
 H     0.216214     3.860030     0.638255
 C     0.154703     3.174056    -2.698563
 H     0.730132     2.622444    -3.441959
 C    -1.298220     4.551329    -0.743561
 H    -1.881670     5.097664    -0.000447
 C    -1.004803     3.857552    -3.050458
 H    -1.369184     3.865124    -4.079012
 C    -1.719989     4.532465    -2.066925
 F    -2.834625     5.180520    -2.402796
 C     1.592962     1.537855     2.067508
 C     2.399473     2.678265     2.033614
 H     2.632460     3.156361     1.081929
 C     1.267408     0.946013     3.290365
 H     0.623410     0.066210     3.283778
 C     2.891420     3.209879     3.225107
 H     3.524139     4.099187     3.224954
 C     1.751340     1.480078     4.478900
 H     1.507456     1.033789     5.444558
 C     2.564503     2.607563     4.432278
 F     3.033460     3.120666     5.568098
 H    -2.952981     1.046255    -0.082460
 H    -1.390569     1.492007     0.589668
 C    -2.651487     0.402106     1.986589
 H    -3.392980    -0.410319     1.961796
 H    -1.814467     0.029453     2.598881
 C    -3.276670     1.617526     2.675993
 H    -4.102537     1.977186     2.033247
 C    -3.875172     1.200610     4.014466
 H    -4.615419     0.395022     3.889814
 H    -4.374331     2.045596     4.513253
 H    -3.089830     0.829823     4.694359
 C    -2.284835     2.762385     2.854088
 H    -2.748471     3.607768     3.385403
 H    -1.915778     3.143225     1.890537
 H    -1.409219     2.437146     3.440938
 C    -3.647304    -1.932194    -0.174976
 C    -4.852470    -1.256833    -0.368970
 H    -4.904291    -0.471629    -1.125468
 C    -3.557794    -2.961921     0.763212
 H    -2.612085    -3.489691     0.891038
 C    -5.966581    -1.586928     0.397766
 H    -6.920573    -1.072739     0.268894
 C    -4.669236    -3.294547     1.532207
 H    -4.627572    -4.091737     2.276451
 C    -5.858005    -2.597868     1.345808
 F    -6.920210    -2.913582     2.085292
 C     0.240751    -2.448514     0.836996
 C     0.572405    -3.098116    -0.356561
 H     0.000072    -2.901817    -1.266668
 C     0.951708    -2.731700     2.004987
 H     0.664844    -2.232445     2.931242
 C     1.641955    -3.991667    -0.385882
 H     1.928025    -4.494908    -1.310948
 C     2.007704    -3.636460     1.982521
 H     2.579342    -3.865181     2.883348
 C     2.348002    -4.246708     0.781288
 F     3.385118    -5.088260     0.750105
