  98
scf done:    -2754.318621
 C     1.792905    -0.275841    -2.533596
 H     1.578929     0.549609    -3.234703
 H     2.697607     0.048605    -1.994965
 C     2.108572    -1.545858    -3.312167
 H     1.269237    -1.856970    -3.955144
 H     2.986748    -1.408927    -3.969472
 H     2.334997    -2.390774    -2.645109
Ir     0.086705    -0.461408    -1.209221
 O     2.984128    -0.127485     0.520532
 C     1.960360     2.245123    -0.392631
 C     1.118962     1.128839     2.038501
 O    -2.370641     0.825451     0.664532
 C    -3.236151    -1.532361    -0.447288
 C    -1.537213    -1.383371     1.841473
 P    -1.739096    -0.652004     0.174675
 P     1.501887     0.616935     0.308859
 C    -0.856214    -0.554082    -2.805454
 O    -1.395574    -0.431834    -3.817181
 C     3.276977    -1.392314     0.093302
 C     4.577878    -1.624610    -0.347464
 H     5.277976    -0.786333    -0.365968
 C     2.346251    -2.430972     0.121186
 H     1.325550    -2.244482     0.459089
 C     4.974404    -2.897458    -0.768571
 C     6.365358    -3.124714    -1.285226
 H     6.441904    -2.823891    -2.343374
 H     7.106198    -2.535593    -0.724885
 H     6.649999    -4.184607    -1.222947
 C     2.736478    -3.700068    -0.297251
 H     2.008202    -4.514272    -0.280086
 C     4.036870    -3.936796    -0.734975
 H     4.329882    -4.938346    -1.059438
 C     1.070676     2.771387    -1.337342
 H     0.220804     2.155752    -1.651851
 C     3.062004     3.010537     0.052099
 C     4.043508     2.526993     1.078848
 H     4.663801     1.710815     0.682639
 H     3.535271     2.126110     1.968169
 H     4.702627     3.346424     1.396291
 C     1.248410     4.051215    -1.855170
 H     0.533035     4.444632    -2.580273
 C     3.227708     4.286158    -0.499015
 H     4.079125     4.889094    -0.171665
 C     2.337846     4.808293    -1.436107
 H     2.499519     5.812747    -1.835558
 C     0.506024     2.383379     2.168509
 H     0.300323     2.971820     1.273776
 C     1.396722     0.371376     3.196960
 C     1.990112    -1.003782     3.173270
 H     3.014602    -1.002897     2.777193
 H     1.394157    -1.680582     2.545944
 H     2.006896    -1.429521     4.184905
 C     0.168656     2.905483     3.411987
 H    -0.309152     3.885801     3.479773
 C     1.081337     0.935532     4.440198
 H     1.308214     0.358315     5.340274
 C     0.473142     2.180020     4.560139
 H     0.238117     2.580781     5.549174
 C    -2.467255     1.892451    -0.179774
 C    -2.228501     3.156143     0.360067
 H    -2.005783     3.227660     1.425551
 C    -2.807525     1.756440    -1.526598
 H    -3.050292     0.777660    -1.940200
 C    -2.251214     4.296831    -0.445763
 C    -1.889809     5.635623     0.127725
 H    -2.378160     6.456197    -0.417347
 H    -2.170104     5.711600     1.188542
 H    -0.800121     5.797961     0.061240
 C    -2.840472     2.892555    -2.331756
 H    -3.093459     2.786268    -3.389179
 C    -2.554063     4.149691    -1.805094
 H    -2.574933     5.030387    -2.452262
 C    -3.047196    -2.389309    -1.538348
 H    -2.045245    -2.485958    -1.961666
 C    -4.524012    -1.412072     0.128160
 C    -4.839039    -0.534565     1.303846
 H    -4.778325     0.530542     1.038117
 H    -4.134835    -0.693070     2.131910
 H    -5.854159    -0.741582     1.669149
 C    -4.095545    -3.123676    -2.082993
 H    -3.915849    -3.783539    -2.934390
 C    -5.565190    -2.154816    -0.443041
 H    -6.564926    -2.064470    -0.009697
 C    -5.366450    -2.998854    -1.531956
 H    -6.207611    -3.560194    -1.946000
 C    -1.685479    -0.592986     2.986706
 H    -1.923833     0.465242     2.874367
 C    -1.194379    -2.748643     1.964543
 C    -1.036184    -3.654693     0.778200
 H    -0.593630    -3.131146    -0.085151
 H    -2.012112    -4.043934     0.446929
 H    -0.397073    -4.513378     1.027878
 C    -1.521396    -1.141808     4.255238
 H    -1.639768    -0.507990     5.136481
 C    -1.021769    -3.271521     3.250578
 H    -0.750317    -4.325567     3.355207
 C    -1.188560    -2.486256     4.388338
 H    -1.050764    -2.926495     5.378876
