 102
scf done:    -3054.977767
 C     1.965076     2.194681    -2.299208
 H     2.005902     3.293870    -2.373509
 H     2.938513     1.900648    -1.870858
 C     1.814913     1.588237    -3.690067
 H     0.871938     1.896097    -4.169956
 H     2.637158     1.893398    -4.364422
 H     1.825231     0.487614    -3.651305
Ir     0.311753     1.537003    -1.097675
 O     2.629860    -0.812287    -1.620073
 C     2.973615     0.504563     0.804865
 C     1.170897    -1.668486     0.467448
 O    -1.482714    -0.018049     1.329034
 C    -2.930267     1.934358     0.139550
 C    -2.440356    -0.537108    -1.217729
 P    -1.616191     0.715439    -0.189563
 P     1.739408    -0.145337    -0.356753
 C    -0.401161     3.249618    -1.276507
 O    -0.764300     4.341407    -1.286130
 C     3.912140    -1.276005    -1.495178
 C     4.970298    -0.372005    -1.563352
 H     4.741606     0.686348    -1.707762
 C     4.155805    -2.638456    -1.313252
 H     3.320362    -3.336951    -1.265060
 C     6.291785    -0.803910    -1.421692
 C     7.414130     0.192445    -1.434296
 H     7.294650     0.921660    -2.249590
 H     7.436073     0.761783    -0.490176
 H     8.390474    -0.298369    -1.551767
 C     5.471934    -3.075733    -1.186184
 H     5.673712    -4.140571    -1.046017
 C     6.530215    -2.169750    -1.232207
 H     7.557511    -2.526802    -1.122340
 C     3.895298    -0.332058     1.461544
 H     3.853150    -1.413985     1.319129
 C     3.053860     1.883496     1.013381
 H     2.327984     2.528317     0.507263
 C     4.870325     0.201806     2.284491
 H     5.597006    -0.435293     2.791491
 C     4.027214     2.432030     1.845538
 H     4.057977     3.512269     1.987542
 C     4.948002     1.590562     2.480912
 O     5.930506     2.017792     3.292663
 C     6.065318     3.392383     3.529901
 H     5.166595     3.815153     4.011878
 H     6.920839     3.511687     4.206456
 H     6.264791     3.950962     2.598775
 C     0.837386    -2.798963    -0.292613
 H     0.956390    -2.774042    -1.377962
 C     0.992352    -1.719332     1.851248
 H     1.222522    -0.843182     2.460738
 C     0.365919    -3.952532     0.316770
 H     0.103555    -4.836347    -0.267604
 C     0.512044    -2.867354     2.474784
 H     0.368692    -2.864679     3.554793
 C     0.195390    -3.993361     1.707464
 O    -0.305921    -5.136996     2.215015
 C    -0.610892    -5.187931     3.583856
 H    -1.350852    -4.417153     3.861718
 H    -1.038112    -6.180897     3.772102
 H     0.291376    -5.064823     4.207648
 C    -2.410193    -0.854711     1.881168
 C    -2.523968    -2.167003     1.422779
 H    -1.879024    -2.493144     0.606687
 C    -3.214201    -0.408233     2.932475
 H    -3.115083     0.617874     3.286799
 C    -3.454988    -3.047926     1.980483
 C    -3.598418    -4.432447     1.417899
 H    -3.975008    -4.388398     0.382352
 H    -2.629179    -4.952941     1.385437
 H    -4.299547    -5.039404     2.008243
 C    -4.127055    -1.287766     3.509111
 H    -4.755277    -0.945842     4.335387
 C    -4.254147    -2.593624     3.035736
 H    -4.986599    -3.268202     3.487153
 C    -3.886321     2.280546    -0.826781
 H    -3.929746     1.733245    -1.771440
 C    -2.878928     2.680083     1.319414
 H    -2.114338     2.449574     2.065411
 C    -4.778129     3.318046    -0.603530
 H    -5.526276     3.594236    -1.348766
 C    -3.771604     3.722277     1.558498
 H    -3.702512     4.280194     2.492519
 C    -4.733080     4.045799     0.593541
 O    -5.639565     5.032700     0.725210
 C    -5.624237     5.814372     1.886289
 H    -4.665500     6.348379     2.009089
 H    -6.429588     6.552119     1.779801
 H    -5.812293     5.210116     2.791575
 C    -1.683000    -1.172950    -2.214219
 H    -0.659344    -0.829455    -2.397868
 C    -3.760178    -0.955443    -1.014585
 H    -4.373985    -0.473253    -0.250356
 C    -2.215356    -2.209197    -2.963477
 H    -1.634701    -2.709169    -3.740684
 C    -4.309991    -1.993714    -1.761820
 H    -5.339616    -2.297599    -1.572897
 C    -3.532124    -2.636200    -2.734964
 O    -3.965719    -3.657356    -3.494397
 C    -5.267256    -4.139909    -3.305530
 H    -6.026583    -3.366141    -3.514075
 H    -5.400957    -4.967884    -4.012912
 H    -5.418672    -4.518597    -2.279229
