  90
scf done:    -2374.042657
 C    -3.300113    -1.808999     0.041981
 H    -3.613312    -2.526858     0.817092
 H    -4.020580    -0.977357     0.091377
 C    -3.403057    -2.449397    -1.338802
 H    -4.426019    -2.818452    -1.541072
 H    -3.162124    -1.725082    -2.133331
 H    -2.725071    -3.311154    -1.452021
Ir    -1.240363    -1.224792     0.237809
 C    -1.005278     2.397194    -0.643054
 O    -3.110912     0.944066    -1.373709
 O    -2.733254     1.552189     1.114124
 C     2.043246    -0.079325     1.118320
 O     1.937152    -2.049086    -0.717093
 O     1.256644     0.212133    -1.415777
 P     0.981301    -0.836370    -0.169164
 P    -1.975469     0.895441    -0.188481
 C    -1.049886    -2.508503     1.570038
 O    -1.012899    -3.121104     2.550219
 H    -0.632229     2.202581    -1.658157
 H    -1.760023     3.198734    -0.716140
 C     0.123200     2.843387     0.242813
 C    -0.051205     3.033547     1.617150
 H    -1.027253     2.843075     2.059765
 C     1.376311     3.127832    -0.315651
 H     1.521742     2.980687    -1.387922
 C     1.015639     3.457366     2.407784
 H     0.872607     3.584585     3.483827
 C     2.449709     3.575174     0.458161
 C     3.777999     3.896992    -0.162477
 H     4.009372     4.970036    -0.065286
 H     4.589225     3.338129     0.328783
 H     3.795474     3.645681    -1.232300
 C     2.257139     3.720924     1.838041
 H     3.088862     4.049880     2.467060
 C    -4.077733     1.982767    -1.547390
 H    -3.955159     2.725690    -0.739096
 C    -5.453790     1.359589    -1.427659
 H    -5.579202     0.887184    -0.443189
 H    -5.586749     0.582670    -2.195750
 H    -6.240283     2.118767    -1.553782
 C    -3.843534     2.640862    -2.892868
 H    -2.840491     3.088274    -2.946176
 H    -3.929160     1.894488    -3.697382
 H    -4.584372     3.434006    -3.074230
 C    -3.253668     0.804816     2.228711
 H    -3.454754    -0.222422     1.892024
 C    -4.545586     1.476501     2.641240
 H    -5.269892     1.476462     1.813952
 H    -4.361518     2.520620     2.938507
 H    -4.995916     0.947755     3.494339
 C    -2.225292     0.745926     3.339074
 H    -1.288249     0.313979     2.957416
 H    -2.020664     1.745606     3.753074
 H    -2.590185     0.104245     4.155086
 H     1.699453     0.963121     1.204360
 H     1.749599    -0.586296     2.050535
 C     3.520675    -0.175016     0.891666
 C     4.324618    -0.931716     1.749653
 H     3.871212    -1.443138     2.603216
 C     4.123752     0.472144    -0.192203
 H     3.490935     1.046574    -0.869673
 C     5.696056    -1.032601     1.524243
 H     6.315633    -1.626564     2.200865
 C     5.496349     0.380886    -0.434242
 C     6.115333     1.109923    -1.592450
 H     5.409515     1.203707    -2.431059
 H     6.414667     2.131825    -1.303979
 H     7.016462     0.597344    -1.959262
 C     6.279319    -0.383182     0.439758
 H     7.355442    -0.470802     0.265700
 C     1.844914    -3.469742    -0.635671
 H     2.716621    -3.798207    -1.226410
 C     0.593905    -4.004205    -1.306928
 H     0.536590    -3.656385    -2.349074
 H    -0.315077    -3.671997    -0.782020
 H     0.610500    -5.104294    -1.313671
 C     2.047030    -3.950477     0.788460
 H     2.972163    -3.521041     1.199041
 H     1.208127    -3.671118     1.440091
 H     2.135236    -5.047060     0.810640
 C     1.164963    -0.210239    -2.777700
 H     1.801695    -1.104367    -2.890113
 C     1.741372     0.910082    -3.618106
 H     2.766029     1.146976    -3.297079
 H     1.128847     1.821055    -3.530000
 H     1.768231     0.619033    -4.678450
 C    -0.258318    -0.565346    -3.169999
 H    -0.671769    -1.347792    -2.512463
 H    -0.928689     0.304735    -3.104360
 H    -0.283273    -0.942781    -4.203406
