 110
scf done:    -2911.398105
 C     2.161598    -1.252722    -2.847179
 H     1.969470    -0.946874    -3.891112
 H     3.022060    -0.640344    -2.530873
 C     2.560671    -2.724079    -2.817055
 H     1.778954    -3.366996    -3.252820
 H     3.490681    -2.916219    -3.385184
 H     2.730421    -3.083646    -1.790202
Ir     0.397627    -0.771235    -1.706672
 C     3.250409    -1.211212     0.181393
 C     2.815974     1.655507    -0.640999
 C     1.367638     0.484986     1.556519
 C    -2.188456     1.485694    -1.085740
 C    -3.031077    -1.247050    -1.237045
 C    -1.868337    -0.354838     1.192000
 P    -1.594211    -0.201656    -0.626836
 P     1.976242     0.076065    -0.133410
 C    -0.493926    -1.734724    -3.006626
 O    -1.000563    -2.381425    -3.817575
 C     2.843188    -2.294253     0.966674
 H     1.837271    -2.300268     1.390616
 C     4.544818    -1.238507    -0.373205
 O     4.922864    -0.174822    -1.112811
 C     6.135902    -0.213146    -1.811654
 H     7.002275    -0.264990    -1.129485
 H     6.193404     0.720432    -2.385427
 H     6.173476    -1.066884    -2.509629
 C     3.678817    -3.380325     1.210030
 H     3.327836    -4.209288     1.827486
 C     5.385675    -2.331797    -0.135900
 H     6.385705    -2.358005    -0.568162
 C     4.952538    -3.395357     0.651591
 H     5.622455    -4.241016     0.823571
 H     3.686793     1.806323     0.009811
 H     3.189075     1.483463    -1.657546
 C     1.880933     2.828900    -0.567990
 C     1.848257     3.605286     0.597811
 H     2.524917     3.356776     1.418709
 C     1.038126     3.168480    -1.648663
 C     1.055345     2.393864    -2.927995
 H     0.710800     1.345875    -2.764090
 H     2.068573     2.325326    -3.354915
 H     0.395125     2.851765    -3.676238
 C     0.974876     4.681559     0.729374
 H     0.970178     5.269372     1.650711
 C     0.175952     4.260765    -1.502074
 H    -0.481948     4.521504    -2.334088
 C     0.128253     5.006428    -0.327849
 H    -0.562279     5.849875    -0.247869
 H     0.570964     1.214210     1.345666
 H     0.844537    -0.415853     1.919881
 C     2.275298     1.038594     2.624748
 C     3.659698     0.845106     2.630883
 H     4.121725     0.252900     1.841418
 C     1.689664     1.789479     3.669293
 C     0.208756     2.024407     3.712034
 H    -0.351269     1.076008     3.760029
 H    -0.136753     2.555100     2.809807
 H    -0.070127     2.624829     4.588955
 C     4.465597     1.387492     3.630146
 H     5.544750     1.219354     3.605213
 C     2.511218     2.327477     4.663562
 H     2.053129     2.911581     5.466688
 C     3.891046     2.136454     4.651246
 H     4.511382     2.569795     5.439305
 C    -2.318824     1.682064    -2.466396
 H    -1.976227     0.888930    -3.137168
 C    -2.566115     2.541558    -0.232486
 O    -2.365304     2.384636     1.092876
 C    -2.827007     3.363859     1.980954
 H    -2.304224     4.324492     1.834740
 H    -2.612016     2.993610     2.991367
 H    -3.915067     3.520988     1.883148
 C    -2.874788     2.839198    -3.003202
 H    -2.975155     2.948754    -4.084718
 C    -3.138373     3.703302    -0.766715
 H    -3.449985     4.512536    -0.107155
 C    -3.302302     3.844818    -2.141307
 H    -3.752607     4.758832    -2.535847
 H    -3.172660    -0.959501    -2.289975
 H    -2.646444    -2.275073    -1.247521
 C    -4.308728    -1.141474    -0.456870
 C    -5.027731     0.062978    -0.459121
 H    -4.679426     0.887088    -1.084220
 C    -4.794899    -2.226058     0.306990
 C    -4.149652    -3.582643     0.273065
 H    -3.107815    -3.561782     0.622720
 H    -4.143082    -3.994251    -0.749105
 H    -4.698799    -4.287600     0.911669
 C    -6.169164     0.232586     0.318526
 H    -6.704512     1.185005     0.298756
 C    -5.944526    -2.034775     1.084514
 H    -6.317627    -2.872845     1.679758
 C    -6.623327    -0.819564     1.109911
 H    -7.515571    -0.703795     1.730047
 H    -1.254715     0.404700     1.690346
 H    -2.905892    -0.049657     1.378499
 C    -1.611391    -1.718362     1.776383
 C    -0.755613    -2.645102     1.169465
 H    -0.269849    -2.379074     0.217862
 C    -2.252441    -2.066317     2.986449
 C    -3.192877    -1.113668     3.664939
 H    -4.074001    -0.908719     3.033869
 H    -2.713510    -0.143432     3.872395
 H    -3.550476    -1.524939     4.618908
 C    -0.526659    -3.899067     1.735050
 H     0.141734    -4.603136     1.233017
 C    -2.012530    -3.328382     3.538002
 H    -2.512439    -3.598035     4.472548
 C    -1.158733    -4.244183     2.925372
 H    -0.993576    -5.224785     3.378255
