 102
scf done:    -2682.509393
 C    -2.865046    -0.770604    -2.446680
 H    -2.795948    -1.716646    -3.013881
 H    -3.705966    -0.945591    -1.752624
 C    -3.238479     0.347269    -3.414435
 H    -2.453046     0.515964    -4.168535
 H    -4.171449     0.120992    -3.963476
 H    -3.396097     1.314867    -2.910620
Ir    -0.983668    -0.553373    -1.416261
 C    -3.718043     1.104475     0.130537
 C    -3.406501    -1.704636     0.798645
 C    -1.818342     0.280517     2.113415
 C     1.192899    -0.765864     1.510025
 C     2.377406    -1.388000    -0.987101
 C     1.777563     1.359062    -0.441974
 P     1.047980    -0.318711    -0.303637
 P    -2.431534    -0.198127     0.448952
 C    -0.142375    -0.732390    -3.054884
 O     0.356616    -0.793294    -4.092607
 H    -4.213554     0.795661    -0.802193
 H    -4.461549     1.059910     0.938470
 C    -3.153287     2.491321     0.016170
 C    -3.588776     3.504928     0.876513
 H    -4.365968     3.291123     1.614868
 C    -2.145169     2.778373    -0.910439
 H    -1.760265     1.968814    -1.545888
 C    -3.015207     4.772533     0.811931
 H    -3.352198     5.556958     1.494241
 C    -1.567013     4.048628    -0.995574
 C    -0.513412     4.321111    -2.026432
 H     0.169830     3.465714    -2.123304
 H    -0.973001     4.490011    -3.014345
 H     0.082384     5.209694    -1.775460
 C    -2.009203     5.042543    -0.114310
 H    -1.560617     6.038991    -0.157313
 C    -4.553232    -1.698041     1.602895
 H    -4.916336    -0.769345     2.049472
 C    -2.949198    -2.909254     0.259372
 H    -2.058364    -2.880737    -0.381292
 C    -5.225288    -2.890422     1.850064
 H    -6.120991    -2.890609     2.475885
 C    -3.615579    -4.116623     0.501528
 C    -3.114829    -5.392100    -0.110477
 H    -3.234402    -5.373323    -1.205685
 H    -2.042867    -5.537903     0.092636
 H    -3.658394    -6.266726     0.273151
 C    -4.759444    -4.087434     1.304511
 H    -5.297053    -5.018257     1.505769
 C    -1.832720    -0.611867     3.189745
 H    -2.264166    -1.607698     3.073085
 C    -1.246308     1.549418     2.290339
 H    -1.197530     2.245130     1.452084
 C    -1.278047    -0.235185     4.412482
 H    -1.280532    -0.941342     5.246274
 C    -0.707359     1.945505     3.517014
 C    -0.103365     3.310757     3.679133
 H     0.993227     3.252082     3.782460
 H    -0.329826     3.950162     2.814215
 H    -0.483412     3.810107     4.583424
 C    -0.723423     1.030038     4.577595
 H    -0.295672     1.314458     5.543051
 H     0.741897     0.048923     2.089956
 H     0.523253    -1.631186     1.620319
 C     2.571652    -1.093506     1.988739
 C     3.035091    -2.414301     1.953776
 H     2.368305    -3.209588     1.612031
 C     3.449453    -0.091206     2.413477
 H     3.102020     0.944004     2.445804
 C     4.345426    -2.711010     2.312098
 H     4.699428    -3.743714     2.266498
 C     4.771808    -0.369866     2.775020
 C     5.681027     0.732246     3.237582
 H     5.480349     1.670079     2.698461
 H     5.540238     0.936896     4.312255
 H     6.739121     0.471721     3.090416
 C     5.212535    -1.696037     2.713184
 H     6.244521    -1.935371     2.985164
 C     2.012303    -2.643758    -1.485560
 H     0.950881    -2.897787    -1.561574
 C     3.730917    -1.052082    -0.902957
 H     4.022785    -0.079832    -0.498723
 C     2.996617    -3.544417    -1.882705
 H     2.712121    -4.523007    -2.277106
 C     4.730256    -1.947192    -1.296952
 C     6.175944    -1.572125    -1.148804
 H     6.382699    -0.587777    -1.596285
 H     6.447394    -1.508020    -0.082457
 H     6.837935    -2.309740    -1.623929
 C     4.343598    -3.198563    -1.787528
 H     5.110834    -3.911723    -2.102040
 C     1.719710     2.299679     0.589419
 H     1.269693     2.040148     1.547201
 C     2.336090     1.737743    -1.670597
 H     2.367084     1.014871    -2.491217
 C     2.239094     3.579283     0.400109
 H     2.193069     4.306524     1.214661
 C     2.866225     3.014416    -1.873612
 C     3.426246     3.404798    -3.209994
 H     4.208061     4.171952    -3.113085
 H     3.852590     2.539481    -3.737268
 H     2.634590     3.821938    -3.855179
 C     2.818802     3.930738    -0.814817
 H     3.231609     4.933997    -0.952048
