 110
scf done:    -2911.460719
 C    -0.128461    -2.102354    -2.301531
 H    -0.714295    -2.002188    -3.231049
 H     0.906620    -1.888222    -2.612261
 C    -0.227231    -3.533239    -1.785633
 H    -1.270748    -3.811438    -1.566090
 H     0.149212    -4.271710    -2.518310
 H     0.348984    -3.668704    -0.857332
Ir    -0.809181    -0.684302    -0.823397
 O     2.169223    -1.912036    -0.081716
 C     2.548289     0.227787    -1.720575
 C     1.987512     0.601788     1.105997
 O    -0.889679     1.532419     1.942003
 C    -3.290131     1.409791     0.786475
 C    -2.023926    -0.699856     2.392325
 P    -1.718612     0.425590     0.951323
 P     1.478017    -0.417692    -0.356637
 C    -2.456281    -1.183098    -1.576134
 O    -3.351821    -1.625486    -2.139245
 C     3.337831    -2.421085    -0.604215
 C     4.524192    -2.323074     0.117295
 H     4.518572    -1.822623     1.083298
 C     3.313022    -3.092035    -1.829062
 H     2.372992    -3.191046    -2.370582
 C     5.713589    -2.868266    -0.381309
 C     6.979087    -2.742622     0.416175
 H     7.214597    -1.685949     0.618048
 H     6.879049    -3.236395     1.395767
 H     7.833873    -3.192945    -0.107329
 C     4.492608    -3.634411    -2.328569
 H     4.477708    -4.158398    -3.287248
 C     5.686327    -3.520069    -1.617101
 H     6.606393    -3.948868    -2.022446
 H     3.584036     0.062902    -1.383223
 H     2.379508    -0.457059    -2.565385
 C     2.367022     1.659035    -2.143136
 C     3.263788     2.623539    -1.667872
 H     4.054865     2.313702    -0.981505
 C     1.372932     2.047556    -3.068921
 C     0.405785     1.062206    -3.643297
 H    -0.209769     0.592236    -2.847790
 H     0.921667     0.235683    -4.158035
 H    -0.269280     1.541961    -4.364423
 C     3.199950     3.952123    -2.076320
 H     3.918235     4.678124    -1.689442
 C     1.324323     3.387687    -3.471392
 H     0.562219     3.685900    -4.196548
 C     2.223595     4.336045    -2.990159
 H     2.161723     5.371819    -3.332802
 H     2.070638     1.624718     0.704953
 H     1.111075     0.606501     1.763670
 C     3.209745     0.213149     1.874261
 C     4.436766     0.838548     1.631740
 H     4.489109     1.624769     0.876177
 C     3.127976    -0.776470     2.878065
 C     1.828602    -1.460212     3.182307
 H     1.428378    -1.962587     2.287728
 H     1.069120    -0.738741     3.526258
 H     1.953370    -2.216022     3.969206
 C     5.584180     0.488258     2.339113
 H     6.531365     0.989810     2.127760
 C     4.286940    -1.112478     3.585239
 H     4.226541    -1.881358     4.360114
 C     5.509230    -0.497202     3.319965
 H     6.399398    -0.785017     3.884122
 C    -0.378632     2.728995     1.549504
 C     0.071332     3.571201     2.569739
 H    -0.029477     3.228642     3.602160
 C    -0.264720     3.117981     0.214128
 H    -0.576629     2.442973    -0.584753
 C     0.635603     4.813752     2.276897
 C     1.155061     5.693224     3.377229
 H     0.610296     5.529328     4.318066
 H     2.219933     5.484563     3.574633
 H     1.074251     6.757633     3.113300
 C     0.284016     4.365053    -0.078410
 H     0.374633     4.668266    -1.122104
 C     0.730051     5.206834     0.934887
 H     1.160663     6.179852     0.685063
 H    -3.765982     1.407079     1.778352
 H    -2.936845     2.437524     0.609856
 C    -4.259374     0.987922    -0.277329
 C    -5.283394     0.088602     0.040024
 H    -5.347069    -0.309297     1.054092
 C    -4.166438     1.487600    -1.594268
 C    -3.061396     2.412240    -2.008694
 H    -2.092308     1.886278    -1.966817
 H    -2.981764     3.295896    -1.356226
 H    -3.208463     2.764771    -3.038639
 C    -6.206043    -0.326624    -0.913476
 H    -6.984973    -1.041546    -0.639388
 C    -5.112012     1.070811    -2.536396
 H    -5.041146     1.456754    -3.556976
 C    -6.121960     0.170541    -2.210692
 H    -6.838032    -0.145663    -2.972856
 H    -1.065367    -1.221802     2.538327
 H    -2.179201    -0.046367     3.260309
 C    -3.138471    -1.687773     2.206995
 C    -2.997724    -2.707564     1.258373
 H    -2.064010    -2.764958     0.689747
 C    -4.324798    -1.609034     2.965791
 C    -4.523157    -0.565110     4.029256
 H    -4.508921     0.457921     3.619402
 H    -3.736835    -0.611148     4.799560
 H    -5.489991    -0.701136     4.532737
 C    -4.023596    -3.613258     1.011466
 H    -3.895914    -4.385621     0.249753
 C    -5.341393    -2.538824     2.714923
 H    -6.263516    -2.480879     3.299901
 C    -5.207075    -3.523804     1.739901
 H    -6.023267    -4.227155     1.558642
