  92
scf done:    -4437.976924
 C     1.645115     0.047268    -3.664016
 H     1.178127     0.233303    -4.644308
 H     2.303378     0.920128    -3.501013
 C     2.478837    -1.229595    -3.730041
 H     1.858205    -2.102593    -3.988290
 H     3.279926    -1.166649    -4.489317
 H     2.966256    -1.464440    -2.769127
Ir     0.166912    -0.201803    -2.124615
 C     3.381554     0.811037    -0.733705
 O     1.535083     2.616652    -1.210095
 O     1.096035     1.006210     0.774038
 C    -2.091838     0.505158     0.590292
 O    -2.420021    -1.771249    -0.933600
 O    -0.529425    -1.618883     0.818485
 P    -1.221385    -0.733517    -0.420855
 P     1.578397     1.002110    -0.816290
 C    -1.151971    -0.403817    -3.450989
 O    -1.974693    -0.360151    -4.250468
 H     3.827362     1.752854    -0.379249
 H     3.697422     0.682677    -1.781273
 C     3.808122    -0.369572     0.130675
 H     3.521719    -0.169521     1.175605
 H     3.256079    -1.278302    -0.165314
 C     5.313633    -0.647866     0.070023
 H     5.830511     0.324840     0.176029
 C     5.748335    -1.533185     1.232241
 H     5.468556    -1.091447     2.201489
 H     6.839412    -1.680176     1.230721
 H     5.283760    -2.528945     1.162603
 C     5.725223    -1.265632    -1.261968
 H     6.815876    -1.404902    -1.313710
 H     5.432504    -0.645155    -2.122726
 H     5.257031    -2.255930    -1.386507
 C     0.316149     3.201633    -1.478802
 C    -0.397996     3.800881    -0.443872
 H     0.016895     3.808856     0.565957
 C    -0.192126     3.185204    -2.776444
 H     0.382339     2.705855    -3.569255
 C    -1.637884     4.381174    -0.702711
 H    -2.210178     4.852873     0.097594
 C    -1.429906     3.762881    -3.038436
 H    -1.846764     3.748928    -4.046427
 C    -2.150544     4.350542    -1.998084
Cl    -3.700834     5.053670    -2.320347
 C     1.643446     1.623666     1.860065
 C     2.372731     2.813216     1.793856
 H     2.540254     3.302144     0.834020
 C     1.400068     1.020527     3.096493
 H     0.815239     0.100322     3.117256
 C     2.870463     3.382040     2.964873
 H     3.442357     4.310394     2.924421
 C     1.890517     1.591339     4.263951
 H     1.703427     1.125610     5.232753
 C     2.630793     2.772445     4.193862
Cl     3.248531     3.486104     5.645037
 H    -2.955419     0.814957    -0.023991
 H    -1.399447     1.359906     0.583004
 C    -2.508358     0.149931     2.011504
 H    -3.170739    -0.727740     2.004436
 H    -1.615124    -0.150035     2.583012
 C    -3.217835     1.290681     2.744953
 H    -4.088429     1.589675     2.130800
 C    -3.743814     0.793355     4.086481
 H    -4.419416    -0.066850     3.958468
 H    -4.296479     1.582234     4.619504
 H    -2.913159     0.471802     4.736954
 C    -2.324652     2.513708     2.924186
 H    -2.847949     3.308356     3.477799
 H    -2.008580     2.939190     1.960317
 H    -1.412822     2.256407     3.489107
 C    -3.435659    -2.196505    -0.120500
 C    -4.688710    -1.593749    -0.229927
 H    -4.839464    -0.813923    -0.978820
 C    -3.223467    -3.220290     0.803687
 H    -2.243087    -3.694231     0.863924
 C    -5.722651    -1.980523     0.616978
 H    -6.704603    -1.509711     0.550070
 C    -4.255097    -3.609773     1.651956
 H    -4.101344    -4.400356     2.387981
 C    -5.495751    -2.978028     1.565031
Cl    -6.771049    -3.442439     2.641381
 C     0.548009    -2.431956     0.636052
 C     0.850972    -3.029175    -0.592097
 H     0.200512    -2.872723    -1.456520
 C     1.360755    -2.673890     1.745232
 H     1.100098    -2.217784     2.701127
 C     1.989064    -3.822154    -0.716453
 H     2.240958    -4.273582    -1.677108
 C     2.486777    -3.481263     1.628126
 H     3.127832    -3.667343     2.490958
 C     2.806009    -4.038651     0.390223
Cl     4.237111    -5.004748     0.223725
