 108
scf done:    -2161.444926
 C     1.088416    -3.326337    -0.699413
 H     1.354234    -3.663058    -1.717050
 H     2.053244    -3.285721    -0.163012
 C     0.215471    -4.381963    -0.025084
 H    -0.724994    -4.547309    -0.574872
 H     0.724394    -5.361426     0.052788
 H    -0.069353    -4.086278     0.998610
Ir     0.072330    -1.434638    -0.772255
 C     2.158645    -1.447461     2.079046
 C     3.486461    -0.913406    -0.447183
 C     2.022045     1.184283     0.840907
 C    -0.735551     2.078037    -1.211950
 C    -2.964762     0.192137    -1.315425
 C    -1.731903     0.772944     1.210169
 P    -1.299080     0.431481    -0.554566
 P     1.911391    -0.617721     0.455012
 C    -0.951168    -2.137748    -2.143604
 O    -1.512105    -2.533546    -3.074079
 H     3.093216    -1.104599     2.554048
 H     2.288089    -2.514105     1.838750
 C     0.956020    -1.243109     2.990707
 H     0.841643    -0.166640     3.208858
 H     0.044187    -1.539278     2.439465
 C     1.001179    -1.997035     4.321438
 H     1.929097    -1.698298     4.845615
 C    -0.182713    -1.584718     5.189606
 H    -0.198837    -0.496944     5.362712
 H    -0.157091    -2.082298     6.171250
 H    -1.134627    -1.857583     4.703676
 C     1.032553    -3.508963     4.129094
 H     1.052085    -4.030630     5.098309
 H     1.914071    -3.839476     3.559988
 H     0.138497    -3.851104     3.581758
 H     3.545364    -2.000814    -0.610022
 H     4.331797    -0.633953     0.201645
 C     3.518067    -0.185337    -1.784808
 H     2.570733    -0.402283    -2.309891
 H     3.537261     0.908535    -1.621200
 C     4.694908    -0.559642    -2.687561
 H     4.655275    -1.654512    -2.840098
 C     4.545342     0.108156    -4.049445
 H     3.589511    -0.161039    -4.524661
 H     5.357629    -0.184064    -4.732906
 H     4.572166     1.206738    -3.952096
 C     6.040919    -0.219059    -2.057435
 H     6.872786    -0.481654    -2.729279
 H     6.203381    -0.754054    -1.109517
 H     6.111620     0.862512    -1.849077
 H     1.123881     1.446551     1.422010
 H     1.901391     1.681959    -0.132687
 C     3.269405     1.677065     1.557110
 H     3.384968     1.136916     2.512067
 H     4.168309     1.438467     0.961323
 C     3.268528     3.181591     1.848063
 H     2.351453     3.406485     2.425615
 C     4.468655     3.555805     2.709972
 H     4.482459     2.985999     3.652183
 H     4.463312     4.626978     2.963926
 H     5.412148     3.345032     2.179253
 C     3.236083     4.015820     0.572018
 H     3.247461     5.092375     0.801364
 H     2.338109     3.820261    -0.032979
 H     4.115592     3.800092    -0.058039
 H     0.009007     1.841223    -1.989279
 H    -0.172684     2.538670    -0.384921
 C    -1.768962     3.048715    -1.768780
 H    -2.247905     2.595539    -2.652131
 H    -2.580300     3.217611    -1.039829
 C    -1.192033     4.410307    -2.170936
 H    -0.335332     4.222707    -2.845625
 C    -2.229399     5.218579    -2.941977
 H    -2.573719     4.681086    -3.839125
 H    -1.824672     6.190083    -3.265360
 H    -3.113749     5.419603    -2.314206
 C    -0.681317     5.197444    -0.968378
 H    -0.270004     6.171089    -1.276127
 H     0.114332     4.665158    -0.425760
 H    -1.499817     5.393147    -0.254767
 H    -2.781164    -0.002932    -2.385721
 H    -3.549754     1.121725    -1.255616
 C    -3.720548    -0.975850    -0.690415
 H    -3.006353    -1.786199    -0.460931
 H    -4.148028    -0.663466     0.280297
 C    -4.839051    -1.544484    -1.565089
 H    -4.370053    -1.873940    -2.510813
 C    -5.458284    -2.768124    -0.901046
 H    -4.698046    -3.536860    -0.693057
 H    -6.232479    -3.222996    -1.538285
 H    -5.932682    -2.498165     0.057715
 C    -5.900759    -0.502320    -1.897466
 H    -6.698678    -0.932480    -2.522555
 H    -5.480887     0.355730    -2.444183
 H    -6.371599    -0.115860    -0.977097
 H    -0.777820     0.912368     1.742225
 H    -2.127690    -0.185987     1.580372
 C    -2.677001     1.921252     1.522703
 H    -2.260236     2.860079     1.121183
 H    -3.642487     1.770292     1.006561
 C    -2.947945     2.121270     3.017784
 H    -1.969944     2.286294     3.509597
 C    -3.798231     3.367183     3.237435
 H    -3.324402     4.261043     2.801891
 H    -3.961594     3.560459     4.308906
 H    -4.788609     3.252564     2.765861
 C    -3.593105     0.899209     3.662125
 H    -3.809000     1.081123     4.726196
 H    -2.947648     0.009987     3.606955
 H    -4.547507     0.653189     3.166255
