 100
scf done:    -2456.440028
 C     1.810210    -2.327015    -1.935524
 H     1.958387    -2.198825    -3.022791
 H     2.794976    -2.081109    -1.502050
 C     1.496132    -3.790881    -1.642285
 H     0.583824    -4.128512    -2.159450
 H     2.316023    -4.462377    -1.958893
 H     1.331241    -3.972865    -0.567875
Ir     0.260199    -0.972358    -1.289043
 C     2.649465    -1.299156     1.252971
 C     3.420298     0.470080    -0.916504
 C     1.747198     1.444187     1.104792
 C    -1.483493     2.077476    -0.202928
 C    -3.120716     0.013256    -1.220621
 C    -1.820791    -0.374641     1.318562
 P    -1.500480     0.235516    -0.380697
 P     1.970129    -0.059539     0.069922
 C    -0.752419    -1.759975    -2.624917
 O    -1.315049    -2.251665    -3.502559
 H     3.303829    -0.790877     1.980578
 H     3.290906    -1.947224     0.637180
 C     1.573264    -2.125342     1.947919
 H     0.851444    -1.469635     2.462592
 H     0.977447    -2.645088     1.177390
 C     2.126459    -3.137055     2.955016
 H     2.706810    -2.570797     3.709264
 C     0.984204    -3.839842     3.678044
 H     0.312415    -3.116881     4.165423
 H     1.361071    -4.532471     4.446615
 H     0.378950    -4.425993     2.967540
 C     3.063609    -4.151680     2.308505
 H     3.427189    -4.880433     3.049395
 H     3.946678    -3.676895     1.855485
 H     2.543787    -4.712227     1.513943
 C     3.294779     0.603765    -2.300355
 H     2.342461     0.338529    -2.770522
 C     4.630597     0.797662    -0.293635
 H     4.722351     0.718459     0.793639
 C     4.380468     1.058989    -3.047958
 H     4.286233     1.166585    -4.131230
 C     5.728386     1.243605    -1.032229
 C     7.033686     1.567776    -0.365001
 H     7.433139     2.533004    -0.711938
 H     6.926383     1.616753     0.727719
 H     7.794303     0.802615    -0.591443
 C     5.582295     1.372010    -2.421059
 H     6.428286     1.726229    -3.017315
 C     1.506388     1.381800     2.480080
 H     1.441652     0.421251     2.992064
 C     1.813167     2.697956     0.482545
 H     2.005789     2.750687    -0.592915
 C     1.346451     2.558541     3.211702
 H     1.166460     2.504666     4.288225
 C     1.645186     3.883615     1.200264
 C     1.662998     5.212867     0.504919
 H     2.216927     5.164754    -0.443084
 H     0.635548     5.540715     0.271499
 H     2.118330     5.992697     1.132724
 C     1.418119     3.796159     2.580940
 H     1.293135     4.712272     3.164660
 H    -1.055771     2.453255    -1.146942
 H    -0.731312     2.304040     0.566642
 C    -2.824504     2.741808     0.080294
 H    -3.477462     2.600160    -0.795221
 H    -3.339337     2.231007     0.913751
 C    -2.732487     4.236853     0.399851
 H    -2.081786     4.701570    -0.365834
 C    -4.107965     4.886854     0.303880
 H    -4.544784     4.759989    -0.698758
 H    -4.060896     5.965760     0.519712
 H    -4.803834     4.432780     1.029146
 C    -2.109165     4.490654     1.767593
 H    -2.001910     5.568744     1.966243
 H    -1.111576     4.037910     1.860600
 H    -2.743804     4.068720     2.565250
 C    -3.175219     0.284985    -2.592939
 H    -2.261287     0.549672    -3.131647
 C    -4.294651    -0.333630    -0.547555
 H    -4.262316    -0.532986     0.526520
 C    -4.389587     0.213163    -3.268022
 H    -4.429087     0.428168    -4.338590
 C    -5.520158    -0.426565    -1.217886
 C    -6.761533    -0.844170    -0.483729
 H    -6.719455    -0.553424     0.575994
 H    -7.663421    -0.398017    -0.927573
 H    -6.887776    -1.939382    -0.517494
 C    -5.552218    -0.142419    -2.586876
 H    -6.501186    -0.202758    -3.127120
 C    -1.742908     0.424853     2.462142
 H    -1.538762     1.493175     2.384639
 C    -2.065770    -1.747998     1.463224
 H    -2.090515    -2.376073     0.567129
 C    -1.910905    -0.149549     3.722705
 H    -1.836869     0.476666     4.615472
 C    -2.267938    -2.330129     2.715677
 C    -2.592927    -3.790088     2.839069
 H    -3.683662    -3.951081     2.812486
 H    -2.157720    -4.368912     2.011867
 H    -2.222590    -4.209352     3.785534
 C    -2.177068    -1.509507     3.849028
 H    -2.314120    -1.947046     4.842000
