  90
scf done:    -4363.251844
 C     2.608640    -2.183583     2.096885
 H     2.519099    -3.257520     1.848363
 H     3.506398    -1.849713     1.545391
 C     2.881485    -2.047484     3.590954
 H     2.047560    -2.427582     4.202500
 H     3.786257    -2.603606     3.896708
 H     3.040951    -0.999822     3.896671
Ir     0.807409    -1.330587     1.286688
 C     3.354033     1.070278     1.438485
 C     3.472313    -0.661412    -0.887450
 C     1.653471     1.557452    -0.826914
 C    -0.755077    -0.812718    -1.743448
 C    -2.430396    -2.044097     0.209613
 C    -1.981431     0.790131     0.462407
 P    -1.107782    -0.778083     0.090811
 P     2.278903     0.177302     0.213118
 C    -0.151501    -2.325473     2.527863
 O    -0.732890    -2.862527     3.364263
 H     3.856756     0.271897     2.005701
 H     4.119020     1.633629     0.885665
 C     2.580555     1.985626     2.342538
 C     2.718681     3.373290     2.240764
 H     3.418707     3.797245     1.516171
 C     1.668349     1.463971     3.266777
 H     1.529439     0.378475     3.314362
 C     1.950586     4.214075     3.043802
 H     2.056212     5.297703     2.952440
 C     0.896275     2.292779     4.085835
 C    -0.049918     1.695927     5.087066
 H    -0.448236     0.730920     4.740120
 H     0.464004     1.505631     6.043792
 H    -0.896103     2.365456     5.300232
 C     1.044031     3.679669     3.956510
 H     0.443347     4.347568     4.580515
 C     4.663065    -0.069898    -1.326713
 H     4.932407     0.939825    -1.007652
 C     3.155847    -1.953210    -1.324339
 H     2.236834    -2.421658    -0.955074
 C     5.520194    -0.749457    -2.186135
 H     6.449958    -0.292857    -2.528930
 C     4.001309    -2.642549    -2.187898
 H     3.757540    -3.650598    -2.526407
 C     5.180987    -2.033892    -2.614104
Cl     6.242122    -2.880971    -3.683938
 C     1.969782     1.701640    -2.183857
 H     2.642388     0.993045    -2.670930
 C     0.771366     2.477386    -0.242996
 H     0.500339     2.383403     0.806599
 C     1.422999     2.737653    -2.938043
 H     1.665376     2.844973    -3.996432
 C     0.216455     3.514749    -0.983909
 H    -0.478381     4.216572    -0.519950
 C     0.547849     3.637476    -2.331751
Cl    -0.148739     4.915805    -3.270490
 H     0.107344    -0.148394    -1.886787
 H    -0.393582    -1.842719    -1.894345
 C    -1.846612    -0.468564    -2.707313
 C    -2.911497    -1.343045    -2.955954
 H    -2.939867    -2.321468    -2.472260
 C    -1.829430     0.773345    -3.354128
 H    -1.000494     1.457922    -3.156751
 C    -3.944666    -0.956284    -3.806322
 H    -4.779388    -1.638055    -3.986818
 C    -2.854192     1.172918    -4.216782
 C    -2.799637     2.501464    -4.913310
 H    -3.801706     2.944444    -5.012701
 H    -2.157175     3.214954    -4.378627
 H    -2.391879     2.392460    -5.932324
 C    -3.922383     0.291654    -4.425274
 H    -4.742162     0.585325    -5.086846
 C    -2.051791    -3.383861     0.043705
 H    -0.994487    -3.630657    -0.094194
 C    -3.776266    -1.749399     0.439255
 H    -4.093887    -0.716422     0.590657
 C    -2.995167    -4.403692     0.069609
 H    -2.700053    -5.445769    -0.062463
 C    -4.731520    -2.763107     0.479343
 H    -5.782644    -2.532592     0.659646
 C    -4.337152    -4.084144     0.283533
Cl    -5.520361    -5.346781     0.319083
 C    -2.945498     1.400232    -0.353398
 H    -3.284211     0.920858    -1.271152
 C    -1.616293     1.423209     1.656571
 H    -0.860247     0.947479     2.287770
 C    -3.480029     2.639903    -0.013985
 H    -4.211912     3.125584    -0.661330
 C    -2.150010     2.656796     2.014049
 H    -1.836189     3.156782     2.931300
 C    -3.067072     3.267946     1.160972
Cl    -3.694546     4.831489     1.559715
