 110
scf done:    -2911.405539
 C     1.668081    -1.713228    -2.800432
 H     1.449568    -1.472234    -3.856056
 H     2.625679    -1.215498    -2.588035
 C     1.860768    -3.220492    -2.665353
 H     0.962422    -3.777633    -2.977682
 H     2.699397    -3.594314    -3.283948
 H     2.064364    -3.517999    -1.623945
Ir     0.070896    -0.965368    -1.566438
 C     2.434143    -1.485867     0.880326
 C     3.155254     0.816384    -0.891248
 C     1.198206     1.139893     1.159344
 C    -1.850868     1.548461    -0.014788
 C    -3.390601    -0.652992    -1.055295
 C    -1.942704    -1.049621     1.406079
 P    -1.743115    -0.274525    -0.266623
 P     1.746045    -0.091644    -0.105712
 C    -1.027935    -1.718153    -2.849845
 O    -1.680501    -2.190129    -3.675201
 C     1.760462    -1.874436     2.042662
 H     0.913906    -1.283646     2.394556
 C     3.509870    -2.286800     0.440187
 O     4.140709    -1.901512    -0.684156
 C     5.120399    -2.726229    -1.252436
 H     6.004662    -2.820985    -0.598454
 H     5.420962    -2.246793    -2.192370
 H     4.721522    -3.729399    -1.476765
 C     2.123418    -3.008010     2.764782
 H     1.563399    -3.286230     3.658938
 C     3.882784    -3.424090     1.165818
 H     4.715660    -4.040030     0.827328
 C     3.189425    -3.781711     2.320361
 H     3.489203    -4.677355     2.869395
 H     3.897900     1.038026    -0.112132
 H     3.615916     0.124405    -1.604388
 C     2.687248     2.069266    -1.574508
 C     1.925879     1.997585    -2.749821
 H     1.647361     1.019834    -3.152197
 C     3.009291     3.324826    -1.054895
 H     3.603924     3.383395    -0.139383
 C     1.512982     3.166109    -3.381807
 H     0.924079     3.104264    -4.300456
 C     2.589830     4.509289    -1.672409
 C     2.961165     5.839075    -1.082436
 H     2.826382     5.839485     0.010224
 H     4.019995     6.078253    -1.275844
 H     2.355248     6.653164    -1.505212
 C     1.839426     4.413358    -2.847687
 H     1.506457     5.326143    -3.350395
 H     0.604485     1.857259     0.577298
 H     0.465523     0.633903     1.807341
 C     2.211596     1.893151     1.974967
 C     2.032155     3.270904     2.150551
 H     1.175805     3.762145     1.680055
 C     3.320048     1.283679     2.572684
 H     3.473366     0.209548     2.447826
 C     2.944543     4.011984     2.896877
 H     2.797078     5.087819     3.022140
 C     4.248941     2.013973     3.321778
 C     5.417174     1.326638     3.968103
 H     6.323043     1.949931     3.932527
 H     5.210237     1.114431     5.030375
 H     5.639414     0.367012     3.479955
 C     4.049719     3.390862     3.473887
 H     4.768261     3.980614     4.049968
 C    -1.240510     2.302401    -1.024210
 H    -0.730387     1.756073    -1.825784
 C    -2.482744     2.237672     1.043677
 O    -3.076479     1.505510     2.003848
 C    -3.810177     2.140515     3.013312
 H    -3.165473     2.761227     3.660048
 H    -4.261580     1.341999     3.615120
 H    -4.618167     2.762429     2.594023
 C    -1.230254     3.695457    -1.004524
 H    -0.724348     4.245737    -1.798619
 C    -2.464859     3.638211     1.072902
 H    -2.938760     4.174711     1.894802
 C    -1.841667     4.357931     0.054471
 H    -1.835694     5.449972     0.100247
 H    -3.305577    -0.277532    -2.085585
 H    -3.436259    -1.752268    -1.109901
 C    -4.579106    -0.073998    -0.359164
 C    -5.291928    -0.812140     0.594655
 H    -5.016344    -1.852650     0.784042
 C    -4.964001     1.246864    -0.608263
 H    -4.416442     1.825605    -1.357769
 C    -6.344169    -0.225831     1.291185
 H    -6.899842    -0.809649     2.029560
 C    -6.011146     1.855646     0.090863
 C    -6.367029     3.288032    -0.185183
 H    -5.490350     3.942750    -0.052808
 H    -6.711685     3.421019    -1.223125
 H    -7.165330     3.643623     0.481650
 C    -6.696839     1.101678     1.048742
 H    -7.521868     1.557278     1.603690
 H    -1.127380    -0.644289     2.028541
 H    -2.870651    -0.677576     1.853932
 C    -1.919686    -2.555076     1.419525
 C    -2.888778    -3.245985     2.161183
 H    -3.664736    -2.683963     2.688263
 C    -0.932285    -3.294673     0.763378
 H    -0.193278    -2.764331     0.146287
 C    -2.857677    -4.635090     2.242395
 H    -3.618123    -5.163220     2.823244
 C    -0.880969    -4.691017     0.840873
 C     0.214558    -5.434128     0.134627
 H     0.189963    -5.236784    -0.948005
 H     1.202247    -5.103546     0.494167
 H     0.135874    -6.519412     0.289761
 C    -1.857743    -5.354332     1.588971
 H    -1.835930    -6.445510     1.659213
