  86
scf done:    -2445.791541
 C    -1.850405    -1.261925    -2.174237
 H    -1.766169    -2.204229    -2.739630
 H    -2.801819    -1.337220    -1.627622
 C    -1.909087    -0.100637    -3.159309
 H    -0.984224    -0.028679    -3.755400
 H    -2.747743    -0.202645    -3.873015
 H    -2.045870     0.867858    -2.649184
Ir    -0.167612    -0.979794    -0.881731
 C    -3.244129     0.535572     0.077741
 O    -1.502902     0.186088     2.026825
 O    -1.047229     2.063255     0.350644
 C     2.284063     1.305138     0.311064
 O     2.637188    -1.105840     1.217018
 O     2.927029    -0.825006    -1.332698
 P     1.908401    -0.430902    -0.108627
 P    -1.448567     0.470323     0.416290
 C     0.448331    -2.621129    -1.503213
 O     0.755886    -3.696648    -1.782603
 C    -3.835957     1.631909    -0.548026
 H    -3.216310     2.497009    -0.785161
 C    -4.030438    -0.609866     0.314704
 O    -3.394056    -1.669581     0.845808
 C    -3.986394    -2.937436     0.769697
 H    -4.869406    -3.020351     1.427075
 H    -3.225998    -3.655185     1.102313
 H    -4.278587    -3.179499    -0.266163
 C    -5.186202     1.631433    -0.895874
 H    -5.628180     2.503591    -1.381527
 C    -5.384102    -0.619424    -0.034046
 H    -5.994323    -1.504274     0.148195
 C    -5.956005     0.504520    -0.628223
 H    -7.015263     0.485732    -0.895977
 C    -0.710830    -0.808375     2.688272
 H    -0.276225    -1.450011     1.904009
 C    -1.629659    -1.623252     3.572807
 H    -2.434770    -2.068220     2.976901
 H    -2.083731    -0.983955     4.346263
 H    -1.065692    -2.424319     4.074431
 C     0.400625    -0.141772     3.471968
 H     1.021729     0.486452     2.821990
 H    -0.012578     0.483203     4.279363
 H     1.053319    -0.901032     3.927467
 C    -1.546853     3.065773     1.251724
 H    -2.557239     2.768298     1.584116
 C    -1.630133     4.368082     0.479804
 H    -2.260919     4.274335    -0.415942
 H    -0.624686     4.683860     0.164606
 H    -2.055215     5.159734     1.114287
 C    -0.639230     3.189376     2.459038
 H    -0.661129     2.269637     3.051806
 H     0.395761     3.379643     2.139353
 H    -0.969282     4.024380     3.095731
 C     2.988501     1.680205     1.455067
 H     3.345642     0.894436     2.123077
 C     1.809731     2.303914    -0.563156
 O     1.175725     1.866452    -1.659464
 C     0.533114     2.778825    -2.507716
 H    -0.216674     3.367219    -1.956173
 H     0.025828     2.179760    -3.272588
 H     1.255823     3.456072    -2.995186
 C     3.233624     3.023961     1.738565
 H     3.786570     3.303453     2.637402
 C     2.055300     3.651535    -0.284205
 H     1.701921     4.429044    -0.961483
 C     2.767875     4.000991     0.862882
 H     2.955419     5.057316     1.071042
 C     2.888590    -2.513534     1.290631
 H     3.194175    -2.858610     0.285866
 C     1.662112    -3.294692     1.724128
 H     0.805699    -3.085505     1.068084
 H     1.384238    -3.038181     2.757422
 H     1.873098    -4.373601     1.681350
 C     4.040598    -2.693657     2.258693
 H     4.928142    -2.135059     1.931866
 H     3.752788    -2.324920     3.255485
 H     4.307338    -3.757216     2.347420
 C     4.249259    -0.407320    -1.683800
 H     4.543813    -1.162721    -2.431358
 C     5.235102    -0.477353    -0.533388
 H     5.269561    -1.487153    -0.103588
 H     4.980275     0.236209     0.262362
 H     6.242731    -0.231257    -0.901420
 C     4.244603     0.946829    -2.371439
 H     3.434666     0.994271    -3.111892
 H     4.113270     1.768505    -1.653721
 H     5.203667     1.100710    -2.889089
