  86
scf done:    -2597.114959
 C    -1.411605     0.627037    -2.967591
 H    -1.509486    -0.151543    -3.743525
 H    -2.415047     0.741880    -2.529781
 C    -0.986791     1.942731    -3.609539
 H    -0.031045     1.850956    -4.150586
 H    -1.737764     2.310527    -4.335077
 H    -0.850300     2.740820    -2.859427
Ir    -0.006051     0.122560    -1.456764
 C    -2.074339     0.858571     1.411853
 C    -3.399978    -0.712566    -0.612147
 C    -1.466999    -1.940657     0.926993
 C     2.080495    -1.106919     1.273413
 C     3.334970     0.767740    -0.511698
 C     1.458330     1.731513     1.269445
 P     1.684481     0.286823     0.155486
 P    -1.730373    -0.338731     0.069431
 C     1.166580    -0.445064    -2.768211
 O     1.835846    -0.998823    -3.532177
 C    -1.704117     0.675017     2.743459
 H    -1.248076    -0.270028     3.044248
 C    -2.615963     2.103085     1.027339
 O    -2.832995     2.246476    -0.292775
 C    -3.391227     3.428730    -0.794397
 H    -4.402913     3.602358    -0.389149
 H    -3.453897     3.301291    -1.881852
 H    -2.756695     4.303881    -0.570938
 C    -1.907749     1.678397     3.691744
 H    -1.604841     1.518923     4.728271
 C    -2.866593     3.093113     1.978578
 H    -3.313102     4.043842     1.685964
 C    -2.506108     2.873553     3.308471
 H    -2.685708     3.658722     4.046624
 C    -3.452444    -1.547376    -1.733620
 C    -4.590924    -0.284423    -0.020950
 C    -5.865972    -1.510185    -1.668572
 C    -5.818825    -0.680459    -0.549934
 C    -4.678839    -1.945049    -2.257893
 H    -2.518190    -1.875824    -2.197533
 H    -4.707310    -2.594602    -3.135991
 H    -6.829125    -1.819072    -2.082093
 H    -6.745217    -0.339216    -0.081019
 H    -4.564269     0.357652     0.862661
 C    -0.492640    -2.812106     0.434802
 C    -2.314610    -2.366891     1.958421
 C    -1.171016    -4.492070     2.032154
 C    -2.156271    -3.631061     2.517946
 C    -0.349603    -4.085138     0.984235
 H     0.139773    -2.468393    -0.390243
 H     0.414681    -4.759825     0.593163
 H    -1.052383    -5.487571     2.467078
 H    -2.815473    -3.952593     3.327962
 H    -3.113009    -1.712539     2.316941
 C     1.687464    -1.174510     2.609836
 H     1.185818    -0.316642     3.061765
 C     2.678568    -2.243863     0.687740
 O     2.920696    -2.145062    -0.629679
 C     3.497859    -3.209402    -1.333596
 H     4.519747    -3.423673    -0.976151
 H     3.534781    -2.892862    -2.382832
 H     2.887051    -4.125486    -1.254492
 C     1.923684    -2.318011     3.373966
 H     1.603815    -2.353022     4.417085
 C     2.956320    -3.374969     1.457563
 H     3.446138    -4.241161     1.011596
 C     2.574077    -3.404542     2.799178
 H     2.778872    -4.298496     3.393022
 C     3.370286     1.611361    -1.625602
 C     4.535362     0.397455     0.102676
 C     5.781670     1.691635    -1.513897
 C     5.752063     0.853083    -0.399922
 C     4.587425     2.072334    -2.123128
 H     2.431181     1.899428    -2.106973
 H     4.600914     2.728719    -2.996542
 H     6.736943     2.047568    -1.907386
 H     6.684689     0.550242     0.082873
 H     4.521733    -0.257864     0.977326
 C     0.535919     2.707244     0.881402
 C     2.267729     1.964175     2.389045
 C     1.193654     4.098830     2.740990
 C     2.125574     3.135049     3.127933
 C     0.407460     3.887259     1.611435
 H    -0.075732     2.530617    -0.009913
 H    -0.316445     4.642320     1.297854
 H     1.087993     5.020796     3.317964
 H     2.756384     3.303226     4.004243
 H     3.024178     1.231530     2.679430
