 112
scf done:    -2613.578624
 C    -1.510582    -3.669653    -0.500141
 H    -1.343725    -4.575249     0.109781
 H    -2.496148    -3.299979    -0.169049
 C    -1.624637    -4.069717    -1.969089
 H    -0.700004    -4.539000    -2.340656
 H    -2.445630    -4.790536    -2.141662
 H    -1.817222    -3.202451    -2.621955
Ir     0.103819    -2.287760    -0.113112
 C    -2.813931    -0.649891    -1.070009
 C    -2.648324    -1.432717     1.795355
 C    -1.438504     1.033791     0.864371
 C     2.040924     0.636346     0.986026
 C     3.483588    -1.827196     0.721617
 C     2.565295    -0.424480    -1.688232
 P     1.986485    -0.934794     0.026569
 P    -1.670176    -0.764052     0.358830
 C     1.175227    -3.763514    -0.397868
 O     1.804649    -4.718561    -0.556077
 H    -3.643268     0.028663    -0.820149
 H    -3.234335    -1.652098    -1.236104
 C    -2.059489    -0.153734    -2.302263
 H    -1.332922     0.618465    -2.005538
 H    -1.458177    -0.982932    -2.714677
 C    -2.959601     0.443630    -3.383131
 H    -3.525654     1.267955    -2.909253
 C    -2.114805     1.045143    -4.499079
 H    -1.440999     1.824668    -4.109524
 H    -2.742965     1.505217    -5.277698
 H    -1.493251     0.273845    -4.984132
 C    -3.956548    -0.573609    -3.925508
 H    -4.600745    -0.127579    -4.699249
 H    -4.614026    -0.966369    -3.134809
 H    -3.433161    -1.432009    -4.379350
 H    -2.865833    -2.479714     1.542102
 H    -1.931240    -1.456812     2.630238
 C    -3.887422    -0.679921     2.161309
 C    -3.895068     0.219665     3.233345
 H    -2.998885     0.335843     3.849135
 C    -5.061933    -0.834380     1.412017
 H    -5.073752    -1.552958     0.587822
 C    -5.039832     0.959394     3.525706
 H    -5.034928     1.658208     4.365517
 C    -6.215170    -0.094740     1.683391
 C    -7.442390    -0.239647     0.831704
 H    -7.518073     0.593884     0.113561
 H    -7.424463    -1.173536     0.252681
 H    -8.359399    -0.228800     1.439274
 C    -6.187869     0.810923     2.753269
 H    -7.081431     1.396171     2.987379
 H    -1.700787     1.078711     1.932068
 H    -0.366829     1.231194     0.792263
 C    -2.182925     2.094062     0.105399
 C    -1.497188     2.915954    -0.796192
 H    -0.418591     2.796742    -0.926132
 C    -3.559173     2.289244     0.270510
 H    -4.104211     1.673950     0.988597
 C    -2.180430     3.882260    -1.530682
 H    -1.632172     4.518424    -2.230291
 C    -4.261485     3.249926    -0.462803
 C    -5.746382     3.397730    -0.294811
 H    -6.077033     3.009780     0.679234
 H    -6.061866     4.448306    -0.377115
 H    -6.286420     2.834671    -1.074968
 C    -3.554315     4.044566    -1.373207
 H    -4.084667     4.803439    -1.955180
 H     1.424614     1.365141     0.436156
 H     3.061601     1.041717     0.942211
 C     1.556980     0.469832     2.417717
 H     0.611353    -0.099418     2.415058
 H     2.264623    -0.162348     2.984700
 C     1.361035     1.787085     3.171813
 H     0.679320     2.414836     2.567684
 C     0.691584     1.535340     4.517200
 H    -0.277403     1.025663     4.392716
 H     0.510182     2.475424     5.060598
 H     1.321505     0.895403     5.157347
 C     2.668113     2.554650     3.340377
 H     2.504487     3.506389     3.868935
 H     3.135563     2.789698     2.372054
 H     3.393258     1.968691     3.930504
 H     3.221025    -2.049948     1.767569
 H     3.524576    -2.792948     0.197741
 C     4.787562    -1.104201     0.611677
 C     5.651284    -1.349074    -0.465122
 H     5.406416    -2.134468    -1.185302
 C     5.158563    -0.128028     1.545750
 H     4.519816     0.044830     2.415929
 C     6.821399    -0.609364    -0.616467
 H     7.486308    -0.812252    -1.459364
 C     6.319693     0.637373     1.401503
 C     6.643319     1.724033     2.385376
 H     6.152295     2.669036     2.097337
 H     6.291249     1.471565     3.396112
 H     7.724337     1.917749     2.435133
 C     7.148047     0.387023     0.300848
 H     8.065255     0.968068     0.171768
 H     3.524233    -0.930402    -1.870319
 H     1.823672    -0.858825    -2.372523
 C     2.701614     1.049224    -1.910609
 C     1.667937     1.780190    -2.503626
 H     0.774726     1.259509    -2.858504
 C     3.847875     1.734177    -1.484717
 H     4.667254     1.169690    -1.031950
 C     1.778805     3.163298    -2.650109
 H     0.968836     3.724059    -3.124398
 C     3.968855     3.118951    -1.611386
 C     5.194570     3.827639    -1.110311
 H     5.979053     3.111776    -0.826499
 H     5.607440     4.507934    -1.871093
 H     4.961626     4.440054    -0.223342
 C     2.914046     3.830486    -2.200423
 H     2.989885     4.915523    -2.314125
