  82
scf done:    -2145.070418
 C     3.783910     0.203786     0.990105
 H     4.636660    -0.492342     0.959148
 H     4.137969     1.113113     0.479648
 C     3.441130     0.518252     2.443678
 H     3.141415    -0.387085     2.997083
 H     4.299536     0.953584     2.989061
 H     2.604903     1.234138     2.534455
Ir     2.030649    -0.657058     0.140287
 O     0.071144     1.936018     1.086077
 C     2.268537     2.899209    -0.179937
 C     0.208805     1.614578    -1.712601
 O    -1.304983    -0.894196    -0.626268
 C    -0.123630    -3.341879    -0.921427
 C    -0.566576    -2.195915     1.673916
 P     0.022315    -1.754547    -0.006456
 P     1.129777     1.464526    -0.134599
 C     3.056581    -2.054294    -0.519002
 O     3.698890    -2.819993    -1.099637
 C    -1.017633     2.746053     0.950286
 C    -2.205448     2.217674     0.439547
 H    -2.217358     1.170756     0.137437
 C    -0.954185     4.077512     1.358266
 H    -0.023978     4.466369     1.776355
 C    -3.341171     3.015980     0.295873
 C    -4.603007     2.448198    -0.288073
 H    -4.540523     1.356039    -0.395396
 H    -5.476642     2.685613     0.338648
 H    -4.798959     2.871223    -1.286904
 C    -2.088817     4.877464     1.224096
 H    -2.050254     5.923002     1.539891
 C    -3.267145     4.358692     0.693295
 H    -4.145869     5.001093     0.591429
 H     1.659235     3.818327    -0.202228
 H     2.808617     2.893810     0.780674
 C     3.250198     2.856529    -1.348093
 H     2.707951     3.021924    -2.293470
 H     3.681890     1.844688    -1.423907
 C     4.362019     3.884484    -1.210532
 H     3.957821     4.907238    -1.141799
 H     4.958008     3.701175    -0.302315
 H     5.047208     3.851836    -2.071005
 H     0.877007     1.117738    -2.437946
 H    -0.650600     0.935457    -1.610267
 C    -0.217618     2.990096    -2.218751
 H     0.669682     3.582937    -2.493699
 H    -0.726438     3.554820    -1.423841
 C    -1.147118     2.873738    -3.417313
 H    -0.671990     2.321811    -4.244328
 H    -2.068665     2.333970    -3.145792
 H    -1.438728     3.864415    -3.797807
 C    -2.587364    -1.343364    -0.749625
 C    -3.474038    -1.250338     0.324593
 H    -3.113666    -0.857230     1.277339
 C    -3.032498    -1.810328    -1.989231
 H    -2.328626    -1.859594    -2.821949
 C    -4.815598    -1.623653     0.182419
 C    -5.762321    -1.475316     1.337742
 H    -5.317972    -1.849220     2.272448
 H    -6.014400    -0.414479     1.501917
 H    -6.701762    -2.017694     1.162907
 C    -4.363587    -2.188578    -2.133947
 H    -4.718128    -2.555390    -3.100212
 C    -5.248388    -2.099355    -1.059532
 H    -6.291730    -2.398213    -1.187761
 H    -1.190978    -3.596313    -1.033528
 H     0.269189    -3.136219    -1.931405
 C     0.636539    -4.501213    -0.282103
 H     0.100021    -4.832066     0.622321
 H     1.628270    -4.161943     0.058325
 C     0.809239    -5.674653    -1.233671
 H    -0.162536    -6.042051    -1.600570
 H     1.410644    -5.383387    -2.109052
 H     1.322477    -6.514890    -0.742439
 H    -1.553765    -2.684247     1.594933
 H     0.137283    -2.960142     2.043941
 C    -0.595163    -1.006572     2.626956
 H    -1.170702    -0.179387     2.180946
 H     0.430041    -0.612173     2.727232
 C    -1.161801    -1.359832     3.991589
 H    -2.202865    -1.715411     3.914564
 H    -0.577293    -2.159424     4.474291
 H    -1.156244    -0.488780     4.663881
