  98
scf done:    -2754.258144
 C    -1.436280     0.527237    -3.018860
 H    -1.473737    -0.226247    -3.824147
 H    -2.450962     0.566283    -2.594704
 C    -1.083183     1.889758    -3.604299
 H    -0.106209     1.882674    -4.114382
 H    -1.833558     2.230283    -4.343957
 H    -1.029652     2.668958    -2.824339
Ir    -0.009921     0.069165    -1.511263
 C    -2.065151     0.937546     1.317326
 C    -3.368674    -0.818086    -0.566737
 C    -1.380389    -1.887682     1.004404
 C     2.073731    -1.073940     1.252593
 C     3.320125     0.787376    -0.545410
 C     1.393185     1.767240     1.166048
 P     1.666564     0.290819     0.104146
 P    -1.703118    -0.344425     0.061474
 C     1.161784    -0.527474    -2.810921
 O     1.836563    -1.095808    -3.559340
 C    -1.629857     0.888800     2.641109
 H    -1.101342     0.002577     2.995042
 C    -2.702708     2.110215     0.860972
 O    -2.976706     2.138370    -0.456038
 C    -3.766178     3.161572    -0.994949
 H    -4.762914     3.191581    -0.522098
 H    -3.877543     2.933428    -2.061896
 H    -3.285914     4.149391    -0.888536
 C    -1.861721     1.949996     3.516147
 H    -1.502851     1.896527     4.545540
 C    -2.990379     3.151206     1.745260
 H    -3.516824     4.041231     1.399911
 C    -2.560028     3.066495     3.069402
 H    -2.765937     3.894576     3.751870
 C    -3.416281    -1.663801    -1.676950
 H    -2.486479    -1.944298    -2.179195
 C    -4.555997    -0.452684     0.071973
 H    -4.521748     0.199739     0.949028
 C    -4.645300    -2.127247    -2.139854
 H    -4.682890    -2.783482    -3.012787
 C    -5.796391    -0.907654    -0.384513
 C    -7.066560    -0.518540     0.316521
 H    -7.506998    -1.378422     0.847502
 H    -6.890274     0.274157     1.057494
 H    -7.824557    -0.157095    -0.395595
 C    -5.824384    -1.750063    -1.502797
 H    -6.785193    -2.113890    -1.878395
 C    -2.106353    -2.233970     2.148907
 H    -2.834564    -1.540390     2.574880
 C    -0.507134    -2.818793     0.434759
 H     0.036987    -2.525873    -0.470831
 C    -1.912456    -3.481706     2.735889
 H    -2.464718    -3.747524     3.640737
 C    -0.341007    -4.091523     0.987555
 C     0.526319    -5.115136     0.315978
 H     1.154545    -4.654459    -0.458133
 H     1.183443    -5.624073     1.036634
 H    -0.090125    -5.888464    -0.171592
 C    -1.037978    -4.400682     2.160968
 H    -0.906817    -5.384422     2.621051
 C     1.647270    -1.142247     2.578665
 H     1.094554    -0.303525     3.004401
 C     2.741104    -2.189235     0.702059
 O     3.001953    -2.107193    -0.613537
 C     3.803923    -3.063443    -1.248195
 H     4.815806    -3.094421    -0.808751
 H     3.868656    -2.754553    -2.298454
 H     3.357304    -4.071448    -1.197983
 C     1.918388    -2.260143     3.367697
 H     1.567465    -2.297024     4.400624
 C     3.067276    -3.285862     1.501923
 H     3.617853    -4.129378     1.084659
 C     2.646919    -3.316738     2.831669
 H     2.885047    -4.187589     3.447211
 C     3.370290     1.556635    -1.708111
 H     2.444157     1.786553    -2.241909
 C     4.505805     0.497182     0.137204
 H     4.470193    -0.100185     1.052866
 C     4.598114     2.016102    -2.182739
 H     4.635511     2.613650    -3.096897
 C     5.743212     0.944573    -0.330588
 C     7.010998     0.624628     0.408484
 H     7.466088     1.535538     0.830354
 H     6.827444    -0.072212     1.238501
 H     7.760332     0.169564    -0.258100
 C     5.773181     1.709741    -1.504461
 H     6.732575     2.067671    -1.889260
 C     2.095710     2.018836     2.348591
 H     2.794898     1.279923     2.745069
 C     0.552452     2.757214     0.646702
 H     0.023392     2.554393    -0.292520
 C     1.914700     3.228423     3.015208
 H     2.451404     3.419059     3.947992
 C     0.393714     3.990589     1.282993
 C    -0.446601     5.071516     0.669776
 H     0.188387     5.870287     0.252296
 H    -1.063839     4.676825    -0.148850
 H    -1.113043     5.535558     1.412004
 C     1.071468     4.203588     2.488874
 H     0.948321     5.155042     3.014296
