  84
scf done:    -1847.171496
 C     2.051205    -0.081496    -2.132296
 H     1.849116     0.505705    -3.046050
 H     2.859380     0.465213    -1.618344
 C     2.596198    -1.452721    -2.522985
 H     1.893906    -2.008344    -3.164234
 H     3.552852    -1.377527    -3.073498
 H     2.783505    -2.088830    -1.641285
Ir     0.275649    -0.267096    -0.926847
 C     2.988727     1.195460     0.878486
 C     1.511046     2.911965    -0.923880
 C     0.560128     2.396242     1.802569
 C    -2.729822    -0.047823     1.175967
 C    -2.512629    -2.349087    -0.547016
 C    -0.740703    -2.038329     1.896065
 P    -1.447705    -1.137932     0.416318
 P     1.250290     1.519487     0.300435
 C    -0.500733    -0.910815    -2.465058
 O    -1.013729    -1.136340    -3.478209
 H     3.228732     1.869293     1.718207
 H     3.652302     1.483110     0.049048
 C     3.223144    -0.259892     1.258030
 H     2.570814    -0.528489     2.105625
 H     2.893280    -0.897938     0.419812
 C     4.667582    -0.618510     1.612151
 H     4.997468     0.056818     2.424954
 C     4.732372    -2.049762     2.133977
 H     4.082629    -2.188766     3.012443
 H     5.757212    -2.328577     2.424018
 H     4.399294    -2.760813     1.359620
 C     5.610406    -0.431802     0.427933
 H     6.639565    -0.721379     0.690736
 H     5.643327     0.611804     0.080525
 H     5.292015    -1.055916    -0.423828
 H     2.262066     2.455847    -1.589709
 C     0.278207     3.187539    -1.778040
 H     0.548704     3.828229    -2.632735
 H    -0.137140     2.242348    -2.160792
 H    -0.514049     3.704396    -1.216789
 C     2.113738     4.177553    -0.327411
 H     3.019873     3.974672     0.263816
 H     2.398468     4.871875    -1.134393
 H     1.399840     4.712401     0.318005
 H     1.306994     3.178364     2.023210
 C    -0.775972     3.070507     1.521635
 H    -1.238389     3.415797     2.460471
 H    -0.665916     3.945952     0.868074
 H    -1.477555     2.382697     1.031586
 C     0.488112     1.475303     3.012014
 H     1.455224     1.004682     3.241162
 H     0.173956     2.041656     3.903295
 H    -0.245594     0.672611     2.856339
 H    -2.212388     0.577947     1.920717
 H    -3.464756    -0.652667     1.728361
 C    -3.397657     0.833372     0.127824
 H    -2.605845     1.336368    -0.454791
 H    -3.936809     0.206144    -0.604962
 C    -4.370100     1.875377     0.684934
 H    -3.828613     2.457966     1.454112
 C    -4.796125     2.839336    -0.416008
 H    -3.925926     3.339119    -0.869472
 H    -5.472668     3.618227    -0.031306
 H    -5.327272     2.304397    -1.220916
 C    -5.582619     1.235100     1.351962
 H    -6.268747     1.999085     1.749344
 H    -5.298206     0.580758     2.189993
 H    -6.148968     0.625140     0.627782
 H    -2.716898    -1.769334    -1.463635
 C    -1.722177    -3.586072    -0.962574
 H    -2.250230    -4.118613    -1.769086
 H    -0.718414    -3.326809    -1.330478
 H    -1.609467    -4.289428    -0.123263
 C    -3.860710    -2.729339     0.056734
 H    -4.502856    -1.857284     0.244765
 H    -4.402176    -3.381224    -0.648120
 H    -3.759493    -3.284805     0.999274
 H    -0.392887    -1.185417     2.503487
 C    -1.711307    -2.849210     2.744942
 H    -1.213182    -3.176700     3.672214
 H    -2.604711    -2.277526     3.036160
 H    -2.043101    -3.757348     2.220292
 C     0.498207    -2.847713     1.520653
 H     1.142310    -2.282998     0.829342
 H     1.082196    -3.096175     2.421654
 H     0.232244    -3.792993     1.027164
