  88
scf done:    -2299.293899
 C     2.164288    -1.951931    -1.903242
 H     2.261157    -1.900324    -3.000672
 H     3.116763    -1.540909    -1.525903
 C     2.033734    -3.408520    -1.471819
 H     1.134111    -3.881546    -1.897539
 H     2.902838    -4.015110    -1.789137
 H     1.957470    -3.512368    -0.376562
Ir     0.432276    -0.895657    -1.203699
 C     2.944798    -0.646125     1.290572
 C     3.214451     1.133492    -0.965463
 C     1.378744     1.806149     1.004461
 C    -2.384834     1.203145    -1.116144
 C    -2.863051    -1.526361    -0.191095
 C    -1.600768     0.284462     1.532245
 P    -1.575800    -0.203033    -0.236618
 P     1.942341     0.320229     0.085379
 C    -0.373705    -1.280272    -2.827391
 O    -0.786268    -1.340239    -3.906191
 H     3.596117     0.020212     1.879638
 H     3.604902    -1.261906     0.660035
 C     2.078630    -1.520349     2.186850
 H     1.365082    -0.889876     2.740973
 H     1.454396    -2.171770     1.548221
 C     2.852803    -2.383228     3.185278
 H     3.485044    -1.706393     3.791754
 C     1.881394    -3.084062     4.128535
 H     1.249102    -2.359097     4.664673
 H     2.412625    -3.689592     4.878971
 H     1.213187    -3.759379     3.568310
 C     3.767453    -3.390040     2.496890
 H     4.307350    -4.003475     3.234609
 H     4.521182    -2.902041     1.860999
 H     3.184434    -4.072428     1.856226
 C     4.307394     1.785612    -0.380968
 C     3.062107     1.161431    -2.354250
 C     5.091383     2.455695    -2.564262
 C     3.997302     1.821955    -3.149726
 C     5.245064     2.437156    -1.177417
 H     4.423091     1.801064     0.705923
 H     6.097081     2.939593    -0.713031
 H     5.826215     2.969925    -3.188607
 H     3.869941     1.836970    -4.234812
 H     2.199891     0.650816    -2.793081
 C     0.786941     2.826711     0.246320
 C     1.559921     1.998358     2.375523
 C     0.579070     4.203378     2.218248
 C     1.159149     3.191448     2.978121
 C     0.391920     4.017244     0.847269
 H     0.658200     2.684801    -0.830936
 H    -0.057863     4.808564     0.242189
 H     0.272395     5.138931     2.692087
 H     1.301380     3.326015     4.053002
 H     2.012824     1.218665     2.990387
 H    -2.259467     0.960924    -2.184028
 H    -1.705921     2.051514    -0.930972
 C    -3.834285     1.554935    -0.818597
 H    -4.476341     0.725731    -1.155973
 H    -4.001706     1.641404     0.268986
 C    -4.301123     2.853859    -1.484149
 H    -4.044428     2.789333    -2.558259
 C    -5.814691     2.993687    -1.369715
 H    -6.333399     2.137698    -1.828322
 H    -6.173649     3.910276    -1.863050
 H    -6.123573     3.042478    -0.311956
 C    -3.601329     4.079628    -0.904903
 H    -3.931740     5.001474    -1.407858
 H    -2.506772     4.025526    -1.008420
 H    -3.831007     4.187215     0.168931
 C    -2.699453    -2.698464    -0.936386
 C    -4.013321    -1.386314     0.600939
 C    -4.821270    -3.537808    -0.142457
 C    -4.986603    -2.380815     0.620111
 C    -3.673845    -3.696394    -0.914997
 H    -1.788060    -2.832164    -1.522554
 H    -3.527555    -4.605917    -1.502453
 H    -5.584033    -4.320155    -0.123885
 H    -5.877315    -2.255128     1.240565
 H    -4.141188    -0.498360     1.223406
 C    -1.334641    -0.713895     2.480090
 C    -1.855679     1.584743     1.976776
 C    -1.590400     0.881386     4.274736
 C    -1.852696     1.879176     3.339850
 C    -1.328118    -0.418511     3.839739
 H    -1.140434    -1.736367     2.144905
 H    -1.123962    -1.210389     4.564715
 H    -1.590944     1.113894     5.342325
 H    -2.051468     2.901792     3.668130
 H    -2.049564     2.386097     1.263502
