 104
scf done:    -2757.071070
 C    -1.639148    -3.139887    -0.947760
 H    -1.263778    -4.161709    -0.774730
 H    -2.626841    -3.101983    -0.463873
 C    -1.782175    -2.913300    -2.447006
 H    -0.807432    -2.939874    -2.962863
 H    -2.419520    -3.680811    -2.924914
 H    -2.242906    -1.937522    -2.677537
Ir    -0.245748    -1.707806    -0.217061
 C    -2.045373     1.123391    -1.842816
 C    -3.625277    -0.752279    -0.373614
 C    -1.986929     1.005012     1.099425
 C     2.344320    -0.376764     1.733379
 C     3.098602    -1.434685    -0.909833
 C     2.002865     1.159261    -0.805096
 P     1.772695    -0.488691    -0.022203
 P    -1.919438    -0.047802    -0.411414
 C     0.426811    -3.026707     0.869062
 O     0.703762    -3.773846     1.712526
 H    -3.097415     1.424050    -1.924691
 H    -1.791422     0.525669    -2.732669
 C    -1.194521     2.383615    -1.764230
 H    -1.211842     2.775587    -0.735399
 H    -0.142559     2.155513    -1.988263
 C    -1.695089     3.479377    -2.710978
 H    -2.781510     3.589216    -2.528946
 C    -1.041372     4.820606    -2.403725
 H    -1.196486     5.109383    -1.351589
 H    -1.452689     5.620954    -3.038970
 H     0.044210     4.774902    -2.577480
 C    -1.497336     3.099007    -4.174015
 H    -1.874239     3.883982    -4.848351
 H    -2.018379     2.164075    -4.430378
 H    -0.425690     2.954123    -4.390711
 C    -4.525613    -0.653807    -1.434096
 H    -4.246718    -0.100016    -2.331317
 C    -4.008737    -1.513117     0.754088
 O    -3.097327    -1.620207     1.731933
 C    -3.261038    -2.563414     2.750844
 H    -4.097079    -2.301906     3.423365
 H    -2.325831    -2.562368     3.324986
 H    -3.425916    -3.574252     2.340587
 C    -5.780287    -1.263928    -1.391162
 H    -6.460438    -1.171901    -2.240344
 C    -5.266703    -2.120502     0.806504
 H    -5.557886    -2.703233     1.680778
 C    -6.148345    -1.990586    -0.265275
 H    -7.127574    -2.472991    -0.215316
 C    -1.227223     0.613201     2.200333
 H    -0.583618    -0.261951     2.064028
 C    -2.881551     2.083845     1.248400
 O    -3.640530     2.400468     0.180640
 C    -4.587676     3.425130     0.279858
 H    -5.334635     3.215952     1.064799
 H    -5.096632     3.473443    -0.691183
 H    -4.115650     4.402419     0.483509
 C    -1.317735     1.270947     3.425332
 H    -0.724354     0.931212     4.277122
 C    -2.960646     2.766373     2.469404
 H    -3.642577     3.608377     2.588824
 C    -2.183454     2.353548     3.550815
 H    -2.269500     2.885249     4.502028
 H     2.316838    -1.428966     2.063521
 H     1.503454     0.123754     2.231263
 C     3.658295     0.269685     2.135333
 H     4.493762    -0.336167     1.756471
 H     3.758704     1.258760     1.659240
 C     3.811364     0.425431     3.652345
 H     3.584955    -0.554579     4.113692
 C     5.250687     0.785617     4.003084
 H     5.956110     0.020662     3.642678
 H     5.390283     0.888115     5.090750
 H     5.535107     1.745669     3.539716
 C     2.846078     1.452572     4.233851
 H     2.940484     1.512640     5.329345
 H     1.797098     1.215862     4.002661
 H     3.056496     2.454842     3.824792
 C     2.772366    -2.663757    -1.489026
 H     1.741715    -3.015822    -1.380128
 C     4.417943    -0.952985    -1.084100
 O     4.699589     0.254795    -0.565225
 C     5.934053     0.859734    -0.813930
 H     6.770687     0.289217    -0.373326
 H     5.892327     1.850410    -0.343504
 H     6.114605     0.985091    -1.895631
 C     3.707523    -3.422845    -2.192300
 H     3.416316    -4.380907    -2.627097
 C     5.359428    -1.708633    -1.790555
 H     6.376473    -1.337921    -1.919330
 C     5.003007    -2.942017    -2.334440
 H     5.752115    -3.521428    -2.880083
 C     2.359984     1.213842    -2.155127
 H     2.492191     0.276970    -2.701948
 C     1.789550     2.373132    -0.124533
 O     1.329768     2.293060     1.140001
 C     0.933893     3.465100     1.797391
 H     1.788912     4.136937     1.988008
 H     0.497755     3.152666     2.752670
 H     0.166384     4.007764     1.219325
 C     2.575504     2.424471    -2.810203
 H     2.859311     2.433728    -3.864553
 C     2.043163     3.591300    -0.764943
 H     1.910248     4.531185    -0.229746
 C     2.442847     3.613238    -2.099709
 H     2.633895     4.572856    -2.586154
