 106
scf done:    -2459.331485
 C     1.400274    -3.333898     1.330292
 H     1.077993    -4.385816     1.282640
 H     2.428026    -3.330965     0.933947
 C     1.396666    -2.870860     2.784768
 H     0.387432    -2.921372     3.225814
 H     2.053382    -3.492748     3.421717
 H     1.736344    -1.825662     2.895732
Ir     0.057553    -2.049441     0.289882
 O     1.580949     0.770459     1.382364
 C     3.458373    -0.920427     0.392985
 C     1.712163     0.446646    -1.416426
 O    -1.300749     0.914094    -0.791166
 C    -3.101278    -1.117802    -1.136450
 C    -2.468151    -0.110809     1.473171
 P    -1.673465    -0.595518    -0.108346
 P     1.708647    -0.418402     0.196923
 C    -0.779034    -3.532631    -0.443826
 O    -1.190945    -4.422121    -1.056989
 C     1.935953     2.081548     1.267296
 C     1.100496     2.963729     0.578481
 H     0.189431     2.569595     0.128161
 C     3.107325     2.540889     1.868480
 H     3.734605     1.840365     2.422625
 C     1.440453     4.310491     0.439761
 C     0.565272     5.238371    -0.352389
 H     0.415050     6.195173     0.170546
 H     1.026185     5.471507    -1.326701
 H    -0.419073     4.791211    -0.551351
 C     3.445080     3.887896     1.743040
 H     4.361977     4.258369     2.208158
 C     2.628815     4.763171     1.030227
 H     2.911920     5.814844     0.935690
 H     3.534655    -1.414089     1.375343
 H     4.065856    -0.002708     0.440795
 C     3.922486    -1.854982    -0.720459
 H     3.123477    -2.584534    -0.937540
 H     4.069858    -1.280707    -1.651865
 C     5.210908    -2.616273    -0.402388
 H     5.026629    -3.195455     0.522259
 C     5.528856    -3.605044    -1.517282
 H     4.695382    -4.305334    -1.681500
 H     6.427417    -4.197374    -1.285042
 H     5.714654    -3.077888    -2.468219
 C     6.385647    -1.679229    -0.146111
 H     7.304110    -2.244775     0.074744
 H     6.200576    -1.006393     0.704895
 H     6.585965    -1.052163    -1.031669
 H     0.737051     0.952773    -1.467552
 H     1.638789    -0.383507    -2.138665
 C     2.859824     1.397915    -1.752973
 H     3.213459     1.918420    -0.851142
 H     3.727326     0.830011    -2.132439
 C     2.466073     2.460626    -2.782119
 H     1.575082     2.978221    -2.379686
 C     3.573464     3.495686    -2.931433
 H     3.800660     3.973585    -1.965320
 H     3.290831     4.286437    -3.644040
 H     4.502029     3.030791    -3.303342
 C     2.084977     1.849150    -4.125062
 H     1.787379     2.626196    -4.846203
 H     1.243431     1.145962    -4.031384
 H     2.935688     1.298337    -4.561031
 C    -2.179508     1.916212    -1.084257
 C    -2.535974     2.846363    -0.107086
 H    -2.139577     2.731723     0.903093
 C    -2.650415     2.054930    -2.392496
 H    -2.346553     1.327079    -3.147023
 C    -3.371693     3.926385    -0.414558
 C    -3.711948     4.935140     0.643675
 H    -3.987444     4.446123     1.590185
 H    -2.846728     5.584689     0.856751
 H    -4.545035     5.581067     0.333841
 C    -3.485733     3.123745    -2.702145
 H    -3.859098     3.238369    -3.722624
 C    -3.846680     4.050532    -1.724157
 H    -4.503033     4.885449    -1.981988
 H    -2.667864    -1.436321    -2.099572
 H    -3.740097    -0.243361    -1.338337
 C    -3.896362    -2.258797    -0.504890
 H    -3.221145    -2.913271     0.071544
 H    -4.614600    -1.846689     0.225864
 C    -4.650368    -3.125276    -1.515198
 H    -3.896934    -3.523161    -2.220197
 C    -5.299509    -4.311965    -0.814523
 H    -4.548600    -4.919594    -0.286505
 H    -5.817767    -4.966289    -1.532376
 H    -6.044088    -3.974742    -0.073814
 C    -5.672897    -2.321451    -2.309838
 H    -6.197720    -2.957254    -3.039506
 H    -5.206884    -1.494620    -2.867497
 H    -6.433838    -1.885663    -1.640140
 H    -2.971907    -1.019743     1.842439
 H    -3.257199     0.629789     1.261738
 C    -1.452343     0.377601     2.496699
 H    -0.716284    -0.428679     2.656368
 H    -0.864531     1.213974     2.082083
 C    -2.035250     0.800861     3.844937
 H    -2.662832    -0.031608     4.215978
 C    -0.908015     1.026610     4.846284
 H    -0.298618     0.118694     4.973247
 H    -1.296636     1.317819     5.834556
 H    -0.235616     1.828668     4.498807
 C    -2.916288     2.041167     3.733509
 H    -3.353510     2.308025     4.708122
 H    -3.749185     1.901446     3.026982
 H    -2.323551     2.906769     3.391096
