  98
scf done:    -2754.328788
 C     0.281440    -0.691633    -3.517843
 H    -0.245857    -0.348950    -4.422192
 H     1.311625    -0.312749    -3.599468
 C     0.290795    -2.216265    -3.489667
 H    -0.725455    -2.635690    -3.407963
 H     0.741901    -2.640653    -4.405733
 H     0.878360    -2.604125    -2.641693
Ir    -0.639542     0.037060    -1.730761
 O     2.587713    -0.869853    -1.592339
 C     2.066689     1.356570    -0.041693
 C     1.507443    -1.337490     0.836231
 O    -1.557627    -0.489228     1.527658
 C    -1.421682     2.083587     1.037149
 C    -3.613546     0.496848     0.121551
 P    -1.791401     0.515143     0.198208
 P     1.388765    -0.231585    -0.610590
 C    -1.862763     0.897489    -2.835988
 O    -2.510315     1.558390    -3.523405
 C     3.924494    -0.724009    -1.338811
 C     4.593470    -1.638778    -0.527029
 H     4.034348    -2.468162    -0.091042
 C     4.608016     0.348364    -1.913594
 H     4.058329     1.053461    -2.539094
 C     5.959727    -1.488238    -0.262774
 C     6.675902    -2.491016     0.595305
 H     6.054015    -2.807852     1.445831
 H     6.922456    -3.397527     0.017832
 H     7.618200    -2.084912     0.989664
 C     5.966063     0.500317    -1.655271
 H     6.508010     1.341103    -2.094841
 C     6.636395    -0.404063    -0.832149
 H     7.702357    -0.269376    -0.630543
 C     1.480379     2.534983    -0.514000
 H     0.623204     2.454368    -1.189824
 C     3.179154     1.447446     0.809333
 H     3.675343     0.543204     1.167325
 C     1.972424     3.775260    -0.120629
 H     1.492069     4.683824    -0.492372
 C     3.663584     2.690480     1.196233
 H     4.532378     2.743305     1.858133
 C     3.062915     3.875341     0.748365
 C     3.567297     5.209767     1.211381
 H     4.666998     5.243797     1.223790
 H     3.204683     6.024232     0.568461
 H     3.225509     5.419494     2.238750
 C     1.518701    -0.888307     2.158110
 H     1.524433     0.181464     2.371922
 C     1.473581    -2.718677     0.596844
 H     1.442289    -3.088356    -0.431451
 C     1.515604    -1.799553     3.211914
 H     1.523667    -1.428825     4.240625
 C     1.478330    -3.621200     1.651233
 H     1.445503    -4.693407     1.441623
 C     1.496150    -3.177434     2.980238
 C     1.445223    -4.158514     4.111283
 H     2.144341    -4.993639     3.953810
 H     1.684839    -3.684134     5.073232
 H     0.434390    -4.591763     4.190712
 C    -1.729335    -1.839906     1.487974
 C    -1.749206    -2.575322     0.303142
 H    -1.616333    -2.055536    -0.656362
 C    -1.875638    -2.487406     2.718226
 H    -1.865754    -1.890399     3.631248
 C    -1.894297    -3.966670     0.327656
 C    -1.876470    -4.733598    -0.962444
 H    -0.925689    -4.582062    -1.498191
 H    -2.007587    -5.811719    -0.795105
 H    -2.676571    -4.393187    -1.638428
 C    -2.031602    -3.867628     2.744214
 H    -2.158498    -4.376078     3.703545
 C    -2.035608    -4.608035     1.560638
 H    -2.156639    -5.693765     1.594782
 C    -0.743042     2.151621     2.254143
 H    -0.524321     1.230894     2.796605
 C    -1.721314     3.270990     0.356043
 H    -2.248579     3.231872    -0.602003
 C    -0.349540     3.386970     2.767288
 H     0.193291     3.424731     3.715858
 C    -1.341534     4.497015     0.884880
 H    -1.586750     5.414938     0.342991
 C    -0.632780     4.576943     2.092679
 C    -0.171531     5.903151     2.620169
 H    -0.977035     6.652616     2.589267
 H     0.183675     5.824756     3.657289
 H     0.660092     6.297225     2.012695
 C    -4.377441     1.079327     1.142059
 H    -3.878597     1.612399     1.955498
 C    -4.266839    -0.193860    -0.901941
 H    -3.677462    -0.664373    -1.692907
 C    -5.762832     0.985894     1.120990
 H    -6.346190     1.449908     1.921399
 C    -5.656389    -0.286934    -0.914046
 H    -6.151499    -0.831595    -1.722357
 C    -6.427671     0.303963     0.091133
 C    -7.925703     0.233598     0.064303
 H    -8.355816     1.187783    -0.282849
 H    -8.281320    -0.555491    -0.612846
 H    -8.336347     0.039155     1.066440
