 102
scf done:    -3054.893597
 C    -1.563514     1.109457    -2.665969
 H    -1.516794     0.741012    -3.704087
 H    -2.583332     0.865058    -2.327789
 C    -1.360684     2.619821    -2.647497
 H    -0.374024     2.900646    -3.051048
 H    -2.124482     3.148022    -3.250569
 H    -1.422919     3.031204    -1.626159
Ir    -0.023340     0.258272    -1.448339
 C    -2.643142     1.505477     0.428448
 C    -2.992913    -1.289422    -0.593642
 C    -1.532975    -0.815052     1.739918
 C     2.471014    -1.572759     0.639500
 C     3.459194     0.648280    -0.644534
 C     1.532950     1.163183     1.414652
 P     1.828175     0.037803    -0.015386
 P    -1.786455    -0.081179     0.069694
 C     0.784255    -0.231475    -3.020444
 O     1.136194    -0.707550    -4.020727
 C    -1.908462     2.418393     1.191154
 H    -0.941567     2.110704     1.592549
 C    -3.865114     1.933718    -0.129655
 O    -4.531115     1.063456    -0.907242
 C    -5.698558     1.455762    -1.565268
 H    -6.498358     1.734166    -0.855761
 H    -6.027797     0.586889    -2.149440
 H    -5.516968     2.302391    -2.250224
 C    -2.367172     3.708952     1.443365
 H    -1.764302     4.388562     2.048731
 C    -4.327586     3.232655     0.118685
 H    -5.271440     3.567226    -0.311877
 C    -3.584532     4.111095     0.903898
 H    -3.962894     5.120967     1.080583
 C    -2.680279    -1.992310    -1.753026
 H    -1.739966    -1.739834    -2.254089
 C    -4.186314    -1.587758     0.093078
 O    -4.432145    -0.873401     1.205839
 C    -5.593961    -1.111185     1.942100
 H    -6.503508    -0.902300     1.350963
 H    -5.563130    -0.429375     2.801565
 H    -5.640630    -2.150035     2.313182
 C    -3.534231    -2.977914    -2.249596
 H    -3.275915    -3.516996    -3.163356
 C    -5.044952    -2.574164    -0.400272
 H    -5.974046    -2.810981     0.118983
 C    -4.713002    -3.262357    -1.569139
 H    -5.393277    -4.031595    -1.944032
 C    -1.965394    -0.244084     2.934892
 H    -2.510152     0.700324     2.904441
 C    -0.875472    -2.062922     1.785961
 O    -0.544467    -2.596582     0.602060
 C    -0.114773    -3.927211     0.531721
 H     0.839863    -4.078600     1.059477
 H     0.032169    -4.143673    -0.533461
 H    -0.878041    -4.611880     0.941194
 C    -1.713691    -0.856006     4.162638
 H    -2.056743    -0.385798     5.086758
 C    -0.610471    -2.676735     3.015356
 H    -0.077170    -3.626606     3.050015
 C    -1.023451    -2.064222     4.198027
 H    -0.809423    -2.549232     5.153749
 C     2.759770    -1.878359     1.968918
 H     2.587248    -1.131327     2.739459
 C     2.796443    -2.538125    -0.343610
 O     2.552050    -2.196910    -1.617606
 C     2.899673    -3.067425    -2.659087
 H     3.986330    -3.259630    -2.677541
 H     2.597374    -2.566549    -3.585658
 H     2.364439    -4.029741    -2.578745
 C     3.310371    -3.106555     2.341306
 H     3.517615    -3.310912     3.393887
 C     3.366897    -3.762655     0.021528
 H     3.622449    -4.497338    -0.741755
 C     3.614184    -4.046369     1.363720
 H     4.057559    -5.007222     1.636585
 C     3.649775     0.904131    -1.998938
 H     2.799912     0.788900    -2.670654
 C     4.548399     0.836074     0.233451
 O     4.319486     0.611067     1.541123
 C     5.349607     0.769847     2.470085
 H     6.190866     0.082336     2.272834
 H     4.920253     0.534615     3.452558
 H     5.730030     1.806302     2.487828
 C     4.884419     1.315215    -2.500593
 H     5.003310     1.504300    -3.569431
 C     5.789381     1.249938    -0.262426
 H     6.633034     1.393441     0.413008
 C     5.952555     1.484017    -1.627115
 H     6.927820     1.805872    -2.001148
 C     1.104229     0.775816     2.684532
 H     0.930813    -0.275517     2.904719
 C     1.606101     2.550806     1.140109
 O     1.893588     2.885469    -0.127767
 C     1.792524     4.214895    -0.549206
 H     0.781146     4.617742    -0.367841
 H     1.987234     4.209005    -1.628728
 H     2.538792     4.860193    -0.053388
 C     0.836418     1.712373     3.686051
 H     0.495635     1.368090     4.664030
 C     1.356533     3.491167     2.142999
 H     1.433273     4.556542     1.925166
 C     0.983967     3.067299     3.419122
 H     0.784274     3.810058     4.195318
