 100
scf done:    -2456.439855
 C     2.045588    -2.892282    -0.048813
 H     2.267769    -3.432644    -0.986391
 H     2.985696    -2.362015     0.182695
 C     1.766161    -3.903903     1.058471
 H     0.912803    -4.556441     0.813912
 H     2.634623    -4.562090     1.248462
 H     1.520552    -3.414839     2.015203
Ir     0.399626    -1.542731    -0.390083
 C     2.699497    -0.017537     1.790094
 C     3.444068     0.030960    -1.010133
 C     1.616006     1.930531    -0.051143
 C    -1.596118     1.423976    -1.311331
 C    -3.031014    -0.983604    -0.914707
 C    -1.828834     0.304857     1.355395
 P    -1.474022    -0.171107    -0.378409
 P     1.989109     0.138482     0.093420
 C    -0.492045    -3.038416    -1.022019
 O    -0.973173    -3.985800    -1.469603
 H     3.256079     0.900865     2.040351
 H     3.435664    -0.831151     1.706596
 C     1.661937    -0.352055     2.854791
 H     0.876452     0.421246     2.886691
 H     1.134631    -1.274602     2.555247
 C     2.247599    -0.519206     4.259405
 H     2.788074     0.414654     4.508251
 C     1.128912    -0.693692     5.279425
 H     0.427219     0.153421     5.250263
 H     1.527317    -0.776232     6.302653
 H     0.549933    -1.607992     5.069108
 C     3.241779    -1.672710     4.342234
 H     3.635169    -1.781752     5.364747
 H     4.103799    -1.531455     3.673305
 H     2.759276    -2.624353     4.064619
 C     3.371267    -0.738568    -2.173825
 H     2.450325    -1.296420    -2.373153
 C     4.617048     0.746656    -0.742039
 H     4.686887     1.375709     0.149326
 C     4.454317    -0.795141    -3.047817
 H     4.380002    -1.400594    -3.955403
 C     5.697136     0.677673    -1.614718
 H     6.607338     1.241152    -1.390564
 C     5.636306    -0.095846    -2.782188
 C     6.816749    -0.190602    -3.703465
 H     7.382414     0.752190    -3.734152
 H     7.512568    -0.977358    -3.366738
 H     6.509689    -0.442579    -4.728536
 C     1.210878     2.701531     1.042806
 H     1.113778     2.250949     2.031558
 C     1.707659     2.551889    -1.304087
 H     2.021497     1.969876    -2.174131
 C     0.914966     4.054800     0.887716
 H     0.597650     4.635201     1.758698
 C     1.410695     3.901537    -1.452076
 H     1.489146     4.362675    -2.440575
 C     1.013717     4.682119    -0.358078
 C     0.726045     6.145484    -0.518108
 H     1.656066     6.735938    -0.466278
 H     0.257969     6.358880    -1.490164
 H     0.057069     6.514250     0.272456
 H    -1.131591     1.225715    -2.290877
 H    -0.918268     2.128588    -0.806968
 C    -2.999985     1.989732    -1.487219
 H    -3.567867     1.315837    -2.147800
 H    -3.544476     1.978202    -0.525991
 C    -3.043437     3.409410    -2.060139
 H    -2.358816     3.440621    -2.929000
 C    -4.447049     3.741153    -2.553626
 H    -4.779264     3.034061    -3.329449
 H    -4.497121     4.756885    -2.976360
 H    -5.173044     3.689601    -1.724917
 C    -2.567934     4.444999    -1.047740
 H    -2.555253     5.456552    -1.483142
 H    -1.552484     4.229830    -0.685605
 H    -3.241295     4.468489    -0.174120
 C    -3.053157    -1.568572    -2.187426
 H    -2.142840    -1.576794    -2.793735
 C    -4.203727    -0.994922    -0.155839
 H    -4.217433    -0.535232     0.834776
 C    -4.216401    -2.143621    -2.684745
 H    -4.208950    -2.593696    -3.681480
 C    -5.363323    -1.585677    -0.655108
 H    -6.269429    -1.587312    -0.042456
 C    -5.393209    -2.169809    -1.924728
 C    -6.633003    -2.832489    -2.449319
 H    -7.530343    -2.494502    -1.911700
 H    -6.776577    -2.627961    -3.520872
 H    -6.571239    -3.927544    -2.334077
 C    -1.921047     1.623078     1.807430
 H    -1.835472     2.456397     1.109105
 C    -1.927414    -0.730794     2.298883
 H    -1.821954    -1.766783     1.964388
 C    -2.112784     1.897806     3.162614
 H    -2.175656     2.938591     3.493144
 C    -2.139568    -0.451170     3.641879
 H    -2.217824    -1.275509     4.356232
 C    -2.235652     0.871028     4.101682
 C    -2.476598     1.161342     5.553765
 H    -3.502839     0.884423     5.845870
 H    -1.793622     0.585224     6.197097
 H    -2.342120     2.228219     5.780999
