  82
scf done:    -2145.009514
 C     2.189829    -2.253897    -1.054573
 H     2.208792    -2.636641    -2.090514
 H     3.027940    -1.544043    -0.983707
 C     2.442145    -3.408715    -0.088844
 H     1.706263    -4.219271    -0.215491
 H     3.444706    -3.860110    -0.223656
 H     2.370009    -3.086424     0.963692
Ir     0.334851    -1.305283    -0.577018
 C     1.936723     1.661561     0.920545
 C     2.854087     0.963409    -1.700755
 C     0.244122     2.107336    -1.365417
 C    -2.734122     0.568720    -0.498808
 C    -2.823748    -1.879722     0.852524
 C    -1.268628     0.270174     2.073123
 P    -1.612166    -0.541665     0.451344
 P     1.360076     0.841878    -0.625245
 C    -0.508365    -2.793225    -1.260476
 O    -1.064731    -3.650425    -1.804070
 C     1.390240     2.844822     1.420903
 H     0.580205     3.336213     0.879803
 C     2.954751     1.031980     1.668938
 O     3.408319    -0.131699     1.168812
 C     4.346426    -0.886004     1.887093
 H     5.303438    -0.347174     1.996908
 H     4.509797    -1.803563     1.309644
 H     3.965334    -1.154648     2.887117
 C     1.854329     3.422073     2.604567
 H     1.412482     4.351836     2.968191
 C     3.427564     1.604927     2.852641
 H     4.219256     1.119845     3.423730
 C     2.880184     2.803495     3.309664
 H     3.257509     3.245181     4.234929
 H     3.219965     2.002592    -1.675677
 H     3.625975     0.341210    -1.225619
 C     2.585565     0.489872    -3.123307
 H     1.890256     1.185753    -3.623849
 H     2.061988    -0.479110    -3.078485
 C     3.858714     0.360380    -3.943977
 H     4.398293     1.319235    -4.010077
 H     4.542431    -0.375534    -3.491796
 H     3.642765     0.026817    -4.970389
 H    -0.247027     1.589711    -2.202303
 H    -0.569458     2.277456    -0.640887
 C     0.840992     3.424246    -1.848038
 H     1.506368     3.230713    -2.704765
 H     1.480626     3.874192    -1.071414
 C    -0.242277     4.410250    -2.260731
 H    -0.890610     3.983742    -3.042502
 H    -0.892501     4.667722    -1.408906
 H     0.187507     5.345702    -2.650035
 C    -2.600266     0.522366    -1.889193
 H    -1.817879    -0.129249    -2.294578
 C    -3.744870     1.384484     0.049272
 O    -3.900995     1.348693     1.390507
 C    -4.876243     2.151714     1.993282
 H    -4.696147     3.225017     1.807682
 H    -4.812817     1.963165     3.072563
 H    -5.891911     1.895447     1.644846
 C    -3.407592     1.285094    -2.731537
 H    -3.280643     1.229480    -3.814534
 C    -4.540651     2.174733    -0.788526
 H    -5.310407     2.824271    -0.371398
 C    -4.366306     2.122504    -2.171384
 H    -4.999701     2.742077    -2.811130
 H    -3.707797    -1.415545     1.320806
 H    -3.144212    -2.256168    -0.133916
 C    -2.283340    -3.028877     1.694680
 H    -2.188369    -2.704486     2.744204
 H    -1.262175    -3.276193     1.356434
 C    -3.162470    -4.267452     1.617704
 H    -4.195617    -4.049990     1.933996
 H    -3.202655    -4.651877     0.586207
 H    -2.778316    -5.074398     2.260285
 H    -0.974024     1.310821     1.854996
 H    -2.194424     0.323032     2.663622
 C    -0.153471    -0.431828     2.842328
 H     0.734058    -0.519585     2.193391
 H    -0.451266    -1.467924     3.066414
 C     0.202991     0.290505     4.131023
 H     0.539417     1.318395     3.927919
 H    -0.662989     0.347702     4.810836
 H     1.014763    -0.223922     4.667964
