  86
scf done:    -2445.888256
 C     1.968500    -0.622400    -2.624418
 H     1.571296    -0.439878    -3.637569
 H     2.588692     0.261142    -2.408745
 C     2.822382    -1.886451    -2.628534
 H     2.259512    -2.765181    -2.982702
 H     3.708585    -1.785718    -3.282695
 H     3.194229    -2.141001    -1.622338
Ir     0.362682    -0.792159    -1.219505
 O     1.754563     1.404151     1.137928
 O     1.778846     2.161855    -1.280689
 O    -0.391908     2.061812     0.129512
 O    -2.225542    -0.209037     1.051805
 O    -2.291810    -2.392260    -0.230912
 O    -0.757903    -2.039502     1.703444
 P    -1.216522    -1.321960     0.319251
 P     0.907822     1.224110    -0.296549
 C    -0.398329    -1.971631    -2.472012
 O    -0.909778    -2.576371    -3.300479
 C     2.879348     0.711257     1.480973
 C     3.682560     0.063006     0.542522
 H     3.421250     0.100758    -0.516693
 C     3.202091     0.674543     2.838852
 H     2.561030     1.195578     3.552114
 C     4.816666    -0.648358     0.952761
 C     5.653640    -1.380999    -0.054429
 H     5.611620    -0.900474    -1.041858
 H     6.704782    -1.439241     0.262513
 H     5.289972    -2.413803    -0.183779
 C     4.332602    -0.025786     3.246279
 H     4.592961    -0.056586     4.307079
 C     5.133660    -0.685163     2.314817
 H     6.019607    -1.231510     2.647697
 C     2.394397     3.419859    -0.963296
 H     2.332408     3.579588     0.126510
 C     1.644300     4.514761    -1.692374
 H     0.585544     4.527268    -1.399249
 H     1.695041     4.348322    -2.778728
 H     2.080463     5.499426    -1.467436
 C     3.852548     3.325555    -1.359837
 H     4.358945     2.530391    -0.794632
 H     3.939472     3.101146    -2.433766
 H     4.367591     4.276435    -1.157597
 C    -0.541815     3.154988     1.053292
 H     0.395242     3.736996     1.069267
 C    -0.819615     2.615485     2.442213
 H     0.021150     2.006110     2.797381
 H    -1.723992     1.992089     2.431105
 H    -0.971217     3.448374     3.145190
 C    -1.667795     4.015269     0.519881
 H    -1.446351     4.366917    -0.497558
 H    -2.603542     3.438776     0.482975
 H    -1.816195     4.891109     1.168832
 C    -3.131417     0.570792     0.396637
 C    -4.135604     1.137564     1.182207
 H    -4.145877     0.909086     2.250852
 C    -3.086404     0.818582    -0.978048
 H    -2.284697     0.390984    -1.585294
 C    -5.104382     1.974307     0.619031
 C    -6.156326     2.603608     1.486347
 H    -6.576798     1.878572     2.199459
 H    -5.735371     3.433175     2.078351
 H    -6.981925     3.010855     0.886064
 C    -4.055353     1.642935    -1.540559
 H    -4.024149     1.842334    -2.614450
 C    -5.054467     2.220093    -0.757438
 H    -5.806273     2.865417    -1.218708
 C    -3.340980    -2.944192     0.587710
 H    -3.376041    -2.378937     1.533872
 C    -2.999723    -4.390106     0.878938
 H    -2.042137    -4.449871     1.414240
 H    -2.915058    -4.958920    -0.059590
 H    -3.780789    -4.854198     1.499986
 C    -4.642618    -2.757345    -0.161356
 H    -4.834339    -1.690402    -0.345077
 H    -4.599988    -3.274312    -1.132168
 H    -5.482462    -3.169244     0.418058
 C     0.491069    -1.700387     2.327613
 H     0.708763    -0.640799     2.115487
 C     1.598250    -2.558819     1.753766
 H     1.676617    -2.389931     0.666053
 H     1.386136    -3.624619     1.930378
 H     2.565118    -2.302592     2.211572
 C     0.298412    -1.862713     3.818125
 H    -0.524301    -1.223405     4.169286
 H     0.055040    -2.907903     4.063587
 H     1.219074    -1.583007     4.351216
