  62
scf done:    -2131.586587
 C    -3.931149    -0.352365    -0.122855
 H    -4.560715    -1.249781    -0.225675
 H    -4.214789     0.105688     0.837420
 C    -4.224283     0.615751    -1.263974
 H    -3.934235     0.205191    -2.244980
 H    -5.301421     0.858548    -1.322760
 H    -3.692359     1.571331    -1.132076
Ir    -1.845364    -0.833591    -0.200398
 O    -0.091838     1.870071     1.096839
 O    -2.614048     2.093843     1.241669
 O    -1.341582     0.575416     2.742534
 O     1.235070    -1.326291     0.869726
 O     0.932995    -2.505187    -1.282793
 O     1.079849     0.031018    -1.340805
 P     0.366189    -1.166347    -0.517025
 P    -1.477104     0.949572     1.179739
 C    -2.359020    -2.602309    -0.529776
 O    -2.680362    -3.705436    -0.575405
 C     0.319255     2.543088    -0.019548
 C     1.650999     2.954536    -0.042991
 H     2.282251     2.724158     0.816715
 C    -0.525448     2.820619    -1.095991
 H    -1.572581     2.515848    -1.075961
 C     2.177508     3.615860    -1.153907
 C     3.614537     4.051512    -1.160317
 H     3.746851     4.985659    -0.589579
 H     4.265054     3.293852    -0.697430
 H     3.975098     4.236278    -2.182174
 C    -0.000045     3.474909    -2.207243
 H    -0.651426     3.680091    -3.060146
 C     1.336184     3.865628    -2.245180
 H     1.731670     4.375060    -3.127632
 C    -2.544997     3.186925     2.140299
 H    -2.450897     2.833642     3.177691
 H    -1.691859     3.840275     1.899516
 H    -3.479067     3.751700     2.026860
 C    -0.958211    -0.708800     3.209691
 H    -1.265800    -1.488100     2.494198
 H     0.132034    -0.756028     3.344048
 H    -1.459287    -0.865047     4.174028
 C     2.582964    -1.114969     1.012405
 C     3.507816    -2.023702     0.505510
 H     3.138348    -2.904974    -0.022399
 C     2.993272     0.025161     1.702107
 H     2.232783     0.707865     2.085005
 C     4.879365    -1.789175     0.657727
 C     5.877536    -2.776740     0.126341
 H     5.593525    -3.137464    -0.873585
 H     6.883335    -2.338666     0.060927
 H     5.942095    -3.660455     0.782334
 C     4.356238     0.259587     1.855676
 H     4.695452     1.151991     2.387661
 C     5.291182    -0.633621     1.331828
 H     6.359117    -0.435275     1.453828
 C     0.410489    -2.842829    -2.551655
 H    -0.660718    -2.590521    -2.627076
 H     0.951845    -2.316674    -3.355399
 H     0.529832    -3.926288    -2.686130
 C     2.371797     0.058235    -1.917851
 H     3.091882     0.505805    -1.217772
 H     2.714398    -0.952157    -2.187465
 H     2.309762     0.685283    -2.817964
