  98
scf done:    -2754.316875
 C    -1.749453    -1.711127    -2.870411
 H    -1.588808    -2.607450    -3.490390
 H    -2.728362    -1.874088    -2.392878
 C    -1.823847    -0.485849    -3.776779
 H    -0.891646    -0.339899    -4.345818
 H    -2.640841    -0.569980    -4.517107
 H    -1.999167     0.446733    -3.212731
Ir    -0.169004    -1.416261    -1.464491
 O    -1.295165     1.264569     0.308103
 C    -3.431872    -0.334947    -0.325249
 C    -1.477018    -1.018078     1.722627
 O     1.714757    -1.036937     1.333358
 C     3.298030    -1.179678    -0.985542
 C     1.781798     1.190208    -0.183932
 P     1.654019    -0.640636    -0.303974
 P    -1.617885    -0.356705     0.002501
 C     0.712309    -2.887773    -2.190301
 O     1.187861    -3.885581    -2.518362
 C    -2.068541     2.334142    -0.055156
 C    -2.935582     2.890660     0.886745
 H    -2.988423     2.443569     1.881312
 C    -1.956350     2.878304    -1.332821
 H    -1.254761     2.444169    -2.046643
 C    -3.715593     4.003641     0.562374
 C    -4.633799     4.613366     1.582236
 H    -4.747224     3.960229     2.458883
 H    -4.243121     5.581782     1.935672
 H    -5.632943     4.802989     1.160906
 C    -2.735544     3.987056    -1.658826
 H    -2.653551     4.421961    -2.657829
 C    -3.608122     4.542951    -0.726711
 H    -4.214165     5.411102    -0.999769
 H    -3.543533    -0.074637    -1.391788
 H    -3.857189     0.503546     0.246179
 C    -4.182910    -1.600170    -0.001271
 C    -5.490253    -1.499215     0.493313
 H    -5.928946    -0.508228     0.640868
 C    -3.637138    -2.879066    -0.177304
 H    -2.617141    -2.987126    -0.558765
 C    -6.233284    -2.636469     0.800387
 H    -7.251543    -2.531599     1.182821
 C    -4.378194    -4.017745     0.135329
 H    -3.930282    -5.004138    -0.006602
 C    -5.677865    -3.902914     0.623621
 H    -6.256336    -4.797031     0.867490
 H    -0.403164    -1.192783     1.876637
 H    -1.973087    -1.999710     1.704837
 C    -2.044041    -0.111562     2.769459
 C    -3.394538    -0.165456     3.134549
 H    -4.043428    -0.919308     2.682279
 C    -1.224565     0.850102     3.375444
 H    -0.167208     0.893343     3.102887
 C    -3.916309     0.731216     4.066173
 H    -4.973065     0.673701     4.338706
 C    -1.742534     1.743145     4.309462
 H    -1.088035     2.486928     4.770200
 C    -3.093851     1.692123     4.653541
 H    -3.502344     2.394210     5.384294
 C     2.816310    -1.099662     2.138832
 C     3.389141     0.055337     2.668248
 H     2.958018     1.026686     2.419468
 C     3.325639    -2.357339     2.467964
 H     2.840583    -3.247459     2.063156
 C     4.516237    -0.021237     3.492283
 C     5.177851     1.233118     3.980524
 H     5.800481     1.669589     3.181306
 H     4.438289     1.994204     4.270166
 H     5.829179     1.039096     4.844176
 C     4.433187    -2.440571     3.306801
 H     4.837235    -3.420369     3.572595
 C     5.031269    -1.283947     3.806062
 H     5.906977    -1.361326     4.455410
 H     3.094572    -1.251192    -2.065842
 H     3.437853    -2.213689    -0.631805
 C     4.512661    -0.332546    -0.739514
 C     5.462209    -0.676159     0.229337
 H     5.325654    -1.583644     0.820916
 C     4.720040     0.833461    -1.490249
 H     4.001277     1.111820    -2.265281
 C     6.572922     0.132622     0.458982
 H     7.298921    -0.157176     1.222657
 C     5.825592     1.647462    -1.256818
 H     5.961936     2.554648    -1.850363
 C     6.755652     1.302471    -0.276662
 H     7.625480     1.938289    -0.094646
 H     2.766977     1.443234     0.239170
 H     1.013151     1.454486     0.560476
 C     1.538237     1.999649    -1.431102
 C     1.657258     3.393863    -1.347126
 H     1.935512     3.848789    -0.392602
 C     1.175311     1.441562    -2.661174
 H     1.040816     0.353682    -2.748477
 C     1.412025     4.204060    -2.450782
 H     1.501452     5.288956    -2.356736
 C     0.929614     2.251217    -3.771376
 H     0.636865     1.789477    -4.717201
 C     1.045842     3.634818    -3.671464
 H     0.851185     4.269137    -4.539428
