 122
scf done:    -3440.911165
 C    -0.657749    -3.225956    -1.661720
 H     0.019141    -4.068119    -1.884457
 H    -1.314407    -3.597302    -0.858160
 C    -1.486066    -2.942274    -2.911860
 H    -0.858457    -2.573935    -3.739606
 H    -2.013116    -3.845214    -3.276338
 H    -2.260480    -2.177776    -2.736958
Ir     0.434624    -1.515937    -0.986607
 C    -2.154650     0.629245    -1.480369
 C    -2.954930    -1.884075     0.098188
 C    -1.688856     0.261569     1.426502
 C     1.748099     0.096572     1.650276
 C     3.388727     0.692017    -0.778017
 C     1.020941     2.115936    -0.514248
 P     1.640206     0.371443    -0.241654
 P    -1.650472    -0.617994    -0.184261
 C     1.901532    -2.490450    -1.508422
 O     2.776087    -3.204358    -1.764130
 H    -1.163733     1.009536    -1.761611
 H    -2.494281     0.011862    -2.320864
 C    -3.073135     1.791066    -1.249369
 C    -4.299921     1.890498    -1.915374
 H    -4.606256     1.090393    -2.588479
 C    -2.687684     2.844152    -0.414580
 H    -1.722769     2.789453     0.091418
 C    -5.120308     2.999200    -1.729594
 H    -6.073077     3.065871    -2.261523
 C    -3.509425     3.954756    -0.195102
 C    -3.075527     5.041522     0.745669
 H    -2.199678     5.580075     0.351508
 H    -3.877278     5.774381     0.915060
 H    -2.783256     4.621135     1.721525
 C    -4.734519     4.023643    -0.866837
 H    -5.387554     4.887691    -0.714679
 C    -2.638276    -2.808653     1.114803
 O    -1.500657    -2.553369     1.776274
 C    -0.926495    -3.512498     2.618929
 H     0.028815    -3.086451     2.948325
 H    -1.560302    -3.711312     3.500507
 H    -0.740343    -4.456481     2.079766
 C    -4.127904    -2.098178    -0.640901
 O    -4.403609    -1.230653    -1.639749
 C    -5.451059    -1.524414    -2.519656
 H    -5.433000    -0.754394    -3.302042
 H    -6.434041    -1.491777    -2.018122
 H    -5.319679    -2.512522    -2.992486
 C    -4.961240    -3.189695    -0.359726
 H    -5.873532    -3.352940    -0.930908
 C    -3.455924    -3.908455     1.391993
 H    -3.189934    -4.614239     2.177696
 C    -4.616685    -4.080602     0.650493
 H    -5.268607    -4.932344     0.858334
 C    -0.579241     0.283973     2.285439
 O     0.502144    -0.478450     2.005298
 C    -3.953730    -1.593702     4.056864
 H    -4.094039    -2.608302     4.453762
 H    -4.378413    -0.861328     4.756480
 H    -4.452295    -1.516602     3.082012
 C    -2.894791     0.841518     1.884217
 O    -3.977814     0.603495     1.132366
 C    -5.201769     1.203237     1.451270
 H    -5.907501     0.885860     0.674391
 H    -5.126167     2.302801     1.431592
 H    -5.569300     0.870248     2.437324
 C    -2.930922     1.576112     3.072969
 H    -3.853834     2.051545     3.403048
 C    -0.629058     0.970114     3.504812
 H     0.246875     0.942651     4.155250
 C    -1.788910     1.636060     3.871324
 H    -1.827920     2.179610     4.818919
 H     1.916719     1.038477     2.177446
 H    -2.884429    -1.386664     3.920450
 C     2.827107    -0.902962     1.949146
 C     2.633113    -2.257720     1.655206
 H     1.680721    -2.567402     1.214396
 C     4.044589    -0.495295     2.495709
 H     4.185908     0.556044     2.752486
 C     3.659790    -3.168448     1.880963
 H     3.509320    -4.222583     1.635807
 C     5.090912    -1.396964     2.715063
 C     6.409701    -0.909764     3.242952
 H     6.275828    -0.214076     4.085996
 H     7.042034    -1.741070     3.585900
 H     6.967318    -0.368766     2.459803
 C     4.882245    -2.742392     2.398794
 H     5.687559    -3.464518     2.561134
 C     4.209873     1.555490    -0.022537
 O     3.616562     2.173503     1.018859
 C     4.316794     3.138528     1.746275
 H     3.613502     3.534114     2.489694
 H     5.187807     2.709782     2.273351
 H     4.661929     3.963999     1.100413
 C     3.945277     0.149707    -1.959076
 O     3.131850    -0.519351    -2.782057
 C     3.645986    -1.187356    -3.898272
 H     2.797131    -1.711606    -4.355275
 H     4.404727    -1.934447    -3.613290
 H     4.077119    -0.482871    -4.631579
 C     5.300616     0.347043    -2.271642
 H     5.729236    -0.108063    -3.162835
 C     5.555502     1.767713    -0.336808
 H     6.178713     2.416491     0.276668
 C     6.091652     1.138073    -1.453639
 H     7.145271     1.285918    -1.702514
 C     0.818346     2.423069    -1.879043
 O     1.047079     1.401745    -2.715964
 C     0.815371     1.523428    -4.087940
 H     1.026534     0.536685    -4.517141
 H    -0.234185     1.791552    -4.300034
 H     1.481186     2.274276    -4.548206
 C     0.823565     3.161111     0.409823
 O     0.987113     2.898446     1.722445
 C     0.687212     3.883965     2.667738
 H     0.857138     3.431057     3.652105
 H    -0.367217     4.201983     2.607047
 H     1.338969     4.769132     2.561407
 C     0.453187     4.443974    -0.023954
 H     0.314522     5.247947     0.696236
 C     0.412618     3.687499    -2.315307
 H     0.243548     3.885562    -3.372709
 C     0.244345     4.692917    -1.373258
 H    -0.060512     5.691203    -1.695683
