 102
scf done:    -2531.171088
 C     1.997789    -3.393352    -0.196316
 H     2.323764    -3.687412    -1.210190
 H     2.927619    -3.107661     0.324513
 C     1.397973    -4.605177     0.511017
 H     2.120161    -5.438547     0.591085
 H     1.075345    -4.369538     1.539379
 H     0.510132    -4.995710    -0.011941
Ir     0.618976    -1.743144    -0.403421
 C     2.216034    -1.012912     2.638825
 O     3.735449    -0.756618     0.523706
 O     1.947756     1.064959     0.835128
 C    -1.187600     1.072883     0.913171
 O    -0.961179     1.001018    -1.685777
 O    -2.446318    -0.826329    -0.610576
 P    -0.968756    -0.112293    -0.470055
 P     2.148276    -0.563336     0.862004
 C    -0.401891    -2.830547    -1.544316
 O    -0.999602    -3.477569    -2.280946
 H     2.560462    -2.059303     2.643867
 H     2.983098    -0.409404     3.145918
 C     0.858496    -0.874570     3.266615
 C     0.576421     0.142293     4.184604
 H     1.371780     0.818093     4.510454
 C    -0.174658    -1.731479     2.871171
 H     0.033886    -2.510327     2.128777
 C    -0.713350     0.289647     4.690288
 H    -0.927042     1.081467     5.412031
 C    -1.482293    -1.578935     3.344488
 C    -2.580737    -2.439403     2.794813
 H    -3.504854    -2.346413     3.382639
 H    -2.800335    -2.144626     1.754346
 H    -2.288388    -3.499778     2.771411
 C    -1.735415    -0.560809     4.271025
 H    -2.747841    -0.426680     4.661842
 C     4.166016    -0.848392    -0.834690
 H     4.899866    -1.669101    -0.872795
 H     3.307040    -1.134014    -1.468671
 C     4.778661     0.455472    -1.296946
 H     5.021292     0.360254    -2.369976
 H     4.009535     1.241828    -1.228913
 C     6.017518     0.872030    -0.517582
 H     6.806278     0.111983    -0.657389
 H     5.781612     0.859654     0.559753
 C     6.540302     2.241449    -0.919247
 H     6.797252     2.274698    -1.990377
 H     5.785168     3.024282    -0.740377
 H     7.442630     2.516264    -0.352454
 C     2.753868     1.966230     1.581898
 H     2.320720     2.071727     2.592434
 H     3.775310     1.563084     1.684034
 C     2.786913     3.308235     0.883504
 H     3.407895     3.985987     1.495388
 H     3.308957     3.198357    -0.082440
 C     1.413671     3.923208     0.653500
 H     0.859974     3.953447     1.608626
 H     0.836260     3.258643    -0.008604
 C     1.474455     5.315106     0.047430
 H     2.006575     6.020161     0.706203
 H     2.002734     5.305509    -0.919311
 H     0.466168     5.719600    -0.127771
 H    -1.156611     0.458989     1.823041
 H    -0.273175     1.679125     0.903587
 C    -2.430350     1.902784     0.867336
 C    -2.514987     3.044287     0.058407
 H    -1.649821     3.345846    -0.534973
 C    -3.551146     1.521528     1.609019
 H    -3.481515     0.633943     2.244729
 C    -3.702418     3.764954    -0.007773
 H    -3.764681     4.652813    -0.642165
 C    -4.754565     2.233446     1.551440
 C    -5.942937     1.776572     2.347908
 H    -6.303958     0.796339     1.995819
 H    -5.689934     1.661552     3.413569
 H    -6.778156     2.486898     2.272787
 C    -4.816950     3.361559     0.728640
 H    -5.746644     3.934037     0.668117
 C    -0.534035     0.663685    -2.996426
 H    -0.004344    -0.306763    -2.974930
 H    -1.425436     0.556949    -3.637861
 C     0.376413     1.751555    -3.521160
 H     0.531081     1.587428    -4.601931
 H    -0.148830     2.718478    -3.426253
 C     1.717503     1.812397    -2.804943
 H     2.262211     0.871143    -2.993348
 H     1.542776     1.835640    -1.716929
 C     2.565872     2.999834    -3.227610
 H     2.768587     2.986154    -4.310813
 H     2.057694     3.951383    -3.002492
 H     3.538397     3.012873    -2.711829
 C    -3.593825    -0.237283    -1.208388
 H    -4.397839    -0.223290    -0.454887
 H    -3.392685     0.809303    -1.486232
 C    -4.009631    -1.043422    -2.420558
 H    -3.173070    -1.063384    -3.140445
 H    -4.166986    -2.091554    -2.114090
 C    -5.260659    -0.492976    -3.089177
 H    -5.088003     0.560100    -3.374758
 H    -6.085864    -0.468929    -2.355240
 C    -5.687219    -1.290912    -4.310695
 H    -4.894766    -1.301685    -5.076138
 H    -5.900629    -2.339107    -4.047195
 H    -6.593119    -0.871910    -4.774374
