  88
scf done:    -4137.179867
 C     1.764254    -2.661947     1.688880
 H     2.020831    -3.609682     1.183199
 H     2.725022    -2.121438     1.746254
 C     1.281777    -2.963154     3.104213
 H     0.398577    -3.621537     3.106056
 H     2.061188    -3.463107     3.708456
 H     0.992227    -2.049737     3.648524
Ir     0.291284    -1.611701     0.516868
 C     2.559537     0.706738     1.920142
 C     3.492903    -0.682467    -0.443598
 C     1.785295     1.517688    -0.744525
 C    -1.375760     0.533659    -1.988710
 C    -3.039730    -1.252880    -0.558471
 C    -1.849252     0.958188     0.841697
 P    -1.447037    -0.357583    -0.369446
 P     1.979414     0.023238     0.307210
 C    -0.649976    -3.208696     0.564478
 O    -1.154975    -4.244098     0.556675
 H     3.186426     1.595439     1.738241
 H     3.217974    -0.075004     2.327340
 C     1.432533     1.005903     2.901628
 H     0.729642     1.740345     2.473962
 H     0.833882     0.088782     3.039360
 C     1.915882     1.518827     4.261401
 H     2.515142     2.431755     4.078916
 C     0.728786     1.908415     5.134206
 H     0.099717     2.673838     4.655993
 H     1.061986     2.306154     6.105128
 H     0.090929     1.031874     5.335863
 C     2.805372     0.509186     4.979722
 H     3.117751     0.891716     5.963431
 H     3.720689     0.276864     4.415073
 H     2.266693    -0.438596     5.144581
 C     3.432954    -1.934518    -1.062159
 H     2.483839    -2.480802    -1.043532
 C     4.699558     0.027940    -0.451606
 H     4.762168     1.017222     0.008897
 C     4.558485    -2.476751    -1.677058
 H     4.516967    -3.454403    -2.159636
 C     5.832495    -0.506074    -1.055229
 H     6.776938     0.040234    -1.061676
 C     5.752740    -1.758641    -1.666667
Cl     7.158390    -2.424487    -2.424380
 C     2.001365     1.414783    -2.125884
 H     2.300012     0.456653    -2.558175
 C     1.408145     2.757486    -0.217440
 H     1.225562     2.872725     0.851821
 C     1.852151     2.516520    -2.960253
 H     2.024000     2.433479    -4.034474
 C     1.253542     3.870075    -1.041922
 H     0.960601     4.835852    -0.626932
 C     1.478432     3.743444    -2.410689
Cl     1.280174     5.118283    -3.441523
 H    -0.890330    -0.167889    -2.686605
 H    -0.654050     1.353232    -1.855433
 C    -2.707080     1.017315    -2.551329
 H    -3.303148     0.138597    -2.843992
 H    -3.300015     1.520872    -1.766678
 C    -2.577441     1.961017    -3.750808
 H    -1.851832     1.509659    -4.453848
 C    -3.913779     2.090988    -4.472252
 H    -4.277928     1.114531    -4.827371
 H    -3.837456     2.761347    -5.342308
 H    -4.681330     2.507196    -3.798479
 C    -2.048941     3.330391    -3.341169
 H    -1.893322     3.982700    -4.213549
 H    -1.084895     3.263087    -2.817751
 H    -2.763825     3.836365    -2.670313
 C    -3.044454    -2.405358    -1.354747
 H    -2.109509    -2.768406    -1.790277
 C    -4.245619    -0.815117    -0.002789
 H    -4.270288     0.085911     0.613612
 C    -4.221082    -3.105054    -1.596783
 H    -4.221561    -4.004163    -2.214732
 C    -5.429844    -1.513529    -0.226582
 H    -6.369859    -1.174706     0.211885
 C    -5.411264    -2.654367    -1.025783
Cl    -6.880265    -3.524148    -1.311419
 C    -1.826482     2.325090     0.549072
 H    -1.643858     2.673924    -0.467706
 C    -2.083946     0.557891     2.166860
 H    -2.075518    -0.507706     2.413129
 C    -2.022427     3.274973     1.551121
 H    -1.993995     4.341703     1.322604
 C    -2.303211     1.492679     3.170517
 H    -2.485921     1.179189     4.199249
 C    -2.259311     2.851946     2.856021
Cl    -2.482680     4.026195     4.109214
