 104
scf done:    -2757.236938
 C     1.771345     0.053802    -3.467045
 H     1.365282     0.288403    -4.464194
 H     2.462966     0.887645    -3.247215
 C     2.543703    -1.261496    -3.528519
 H     1.894181    -2.094863    -3.841143
 H     3.385879    -1.220754    -4.244257
 H     2.966619    -1.545987    -2.550665
Ir     0.204756    -0.154351    -2.010628
 C     3.374737     0.658622    -0.418078
 O     1.674716     2.577848    -0.979610
 O     1.023171     0.974903     0.954227
 C    -2.140478     0.623724     0.602194
 O    -2.512459    -1.610052    -0.970676
 O    -0.700811    -1.578964     0.870928
 P    -1.287497    -0.647934    -0.383981
 P     1.594460     0.963608    -0.603032
 C    -1.054255    -0.271801    -3.400269
 O    -1.835553    -0.172212    -4.237105
 H     3.850102     1.555010     0.008679
 H     3.749158     0.555430    -1.448903
 C     3.668433    -0.581220     0.417790
 H     3.322387    -0.406322     1.448992
 H     3.084207    -1.442191     0.047506
 C     5.153649    -0.953839     0.448184
 H     5.722572    -0.028948     0.661202
 C     5.433922    -1.941065     1.574813
 H     5.135271    -1.529686     2.551571
 H     6.503645    -2.196864     1.626241
 H     4.870633    -2.874460     1.421827
 C     5.631380    -1.506894    -0.889874
 H     6.707316    -1.738587    -0.863663
 H     5.466996    -0.801868    -1.718719
 H     5.092447    -2.436772    -1.137048
 C     0.507575     3.243041    -1.301959
 C    -0.224737     3.870417    -0.299389
 H     0.130038     3.833921     0.732587
 C     0.068869     3.277316    -2.624114
 H     0.652028     2.767872    -3.391599
 C    -1.408911     4.531186    -0.626181
 H    -1.982459     5.020004     0.166260
 C    -1.113568     3.939980    -2.932662
 H    -1.459705     3.953153    -3.969788
 C    -1.877202     4.574097    -1.942520
 C    -3.148368     5.290290    -2.296431
 H    -3.723601     5.557452    -1.398731
 H    -3.790947     4.671041    -2.940964
 H    -2.940261     6.222130    -2.847605
 C     1.563557     1.523451     2.083423
 C     2.339901     2.681814     2.090123
 H     2.557644     3.201065     1.156451
 C     1.261641     0.880873     3.286730
 H     0.643579    -0.017172     3.251232
 C     2.818531     3.174967     3.304934
 H     3.426596     4.083720     3.300087
 C     1.741811     1.391716     4.485163
 H     1.495636     0.878900     5.419339
 C     2.534439     2.548208     4.520289
 C     3.054051     3.084484     5.822514
 H     3.603055     4.025590     5.679353
 H     3.737940     2.368124     6.305752
 H     2.234357     3.277189     6.532542
 H    -2.970343     0.969468    -0.038415
 H    -1.413771     1.449034     0.624151
 C    -2.617876     0.274224     2.004973
 H    -3.320720    -0.571186     1.965110
 H    -1.757385    -0.073724     2.598764
 C    -3.291854     1.440237     2.732000
 H    -4.139697     1.777530     2.105675
 C    -3.858960     0.959494     4.062793
 H    -4.561115     0.123275     3.919623
 H    -4.392651     1.766055     4.589230
 H    -3.051079     0.606871     4.725800
 C    -2.352150     2.624651     2.932923
 H    -2.848501     3.433515     3.491396
 H    -2.010532     3.046969     1.976583
 H    -1.456018     2.323903     3.501577
 C    -3.579582    -2.011469    -0.209390
 C    -4.802352    -1.359068    -0.356470
 H    -4.886790    -0.550806    -1.085654
 C    -3.451835    -3.062692     0.698268
 H    -2.491976    -3.571405     0.796954
 C    -5.885860    -1.739279     0.430533
 H    -6.839065    -1.215650     0.316095
 C    -4.544744    -3.430254     1.477383
 H    -4.434627    -4.247832     2.195297
 C    -5.777782    -2.775167     1.366137
 C    -6.956065    -3.197835     2.195153
 H    -7.516732    -4.009844     1.702244
 H    -7.657572    -2.365831     2.352683
 H    -6.642266    -3.571191     3.180923
 C     0.319271    -2.473688     0.724664
 C     0.640546    -3.072606    -0.498052
 H     0.058011    -2.840205    -1.393452
 C     1.045889    -2.807562     1.866521
 H     0.775869    -2.346594     2.817764
 C     1.707183    -3.964322    -0.567424
 H     1.953630    -4.412230    -1.534109
 C     2.096928    -3.716906     1.781579
 H     2.657391    -3.966982     2.686425
 C     2.457133    -4.305703     0.564426
 C     3.601519    -5.272766     0.464989
 H     3.274595    -6.240490     0.052877
 H     4.055163    -5.462595     1.447938
 H     4.392853    -4.890260    -0.199886
