  98
scf done:    -2602.897677
 C     1.843562    -2.794302    -0.909279
 H     1.676080    -3.371580    -1.832555
 H     2.894544    -2.474551    -0.947170
 C     1.610034    -3.689788     0.301679
 H     0.569659    -4.050778     0.350980
 H     2.261350    -4.583785     0.284387
 H     1.816471    -3.165930     1.250069
Ir     0.454549    -1.190329    -0.725833
 C     3.515681    -0.756816     1.096795
 O     2.258709     1.369848    -0.096504
 O     1.333733     0.398829     2.120595
 C    -1.823319     1.656553    -0.257921
 O    -2.849212    -0.828956    -0.605687
 O    -1.613222    -0.477748     1.536402
 P    -1.465423    -0.134012    -0.040511
 P     1.887684    -0.048319     0.641788
 C    -0.024427    -1.486065    -2.493344
 O    -0.136132    -1.526054    -3.644260
 C     3.708231    -1.259300     2.386714
 H     2.923004    -1.105228     3.129715
 C     4.505291    -1.000655     0.122728
 O     4.268077    -0.496596    -1.102490
 C     5.050904    -0.915311    -2.187058
 H     6.092443    -0.558777    -2.104247
 H     4.594048    -0.480638    -3.084737
 H     5.047235    -2.014536    -2.280442
 C     4.858752    -1.968964     2.724496
 H     4.988618    -2.352718     3.738196
 C     5.657488    -1.720419     0.453709
 H     6.422676    -1.914174    -0.298174
 C     5.828125    -2.196532     1.752458
 H     6.731964    -2.758884     1.999149
 C     3.415377     2.174828     0.057880
 H     3.166977     3.009834     0.738191
 H     4.230664     1.596130     0.521478
 C     3.848660     2.716287    -1.286983
 H     4.760933     3.318551    -1.126968
 H     4.135702     1.866336    -1.925093
 C     2.789897     3.552871    -1.988965
 H     2.489291     4.387183    -1.329209
 H     1.891272     2.931789    -2.130551
 C     3.252061     4.096884    -3.330453
 H     4.136595     4.745341    -3.220978
 H     3.526499     3.278874    -4.015724
 H     2.464323     4.687989    -3.821630
 C     1.884284     1.443442     2.908778
 H     1.848562     1.097136     3.955656
 H     2.947156     1.607094     2.661612
 C     1.076460     2.717340     2.755500
 H     1.552332     3.508290     3.362498
 H     1.128073     3.048737     1.704302
 C    -0.379825     2.536679     3.155169
 H    -0.429429     2.242624     4.219258
 H    -0.776445     1.684862     2.584447
 C    -1.233761     3.768409     2.913018
 H    -0.867943     4.636891     3.485245
 H    -1.232854     4.044896     1.847452
 H    -2.280716     3.595448     3.207156
 C    -0.751364     2.426346    -0.717726
 H     0.215208     1.933197    -0.856908
 C    -3.081178     2.280955    -0.093557
 O    -4.100591     1.513417     0.337490
 C    -5.367587     2.079362     0.521968
 H    -5.349522     2.885475     1.276009
 H    -6.018421     1.270694     0.877149
 H    -5.778217     2.479133    -0.421234
 C    -0.892290     3.785716    -0.995914
 H    -0.036727     4.363693    -1.348711
 C    -3.228487     3.641811    -0.384186
 H    -4.194857     4.131428    -0.264899
 C    -2.135820     4.384565    -0.830570
 H    -2.270427     5.446360    -1.051632
 C    -3.253190    -0.665952    -1.950308
 H    -3.491767     0.397274    -2.143923
 H    -2.435337    -0.951891    -2.631392
 C    -4.465443    -1.533528    -2.205776
 H    -4.679815    -1.511184    -3.288470
 H    -4.198416    -2.576413    -1.962264
 C    -5.702861    -1.120283    -1.423020
 H    -5.987067    -0.093383    -1.714373
 H    -5.439638    -1.069873    -0.354678
 C    -6.879749    -2.060629    -1.620810
 H    -7.172521    -2.123534    -2.681464
 H    -6.630764    -3.081756    -1.289340
 H    -7.763107    -1.734122    -1.050836
 C    -2.662800    -0.192606     2.448957
 H    -2.205234    -0.327051     3.442069
 H    -2.965640     0.862438     2.358806
 C    -3.862877    -1.103606     2.288829
 H    -4.564362    -0.870940     3.110813
 H    -4.372364    -0.845605     1.349304
 C    -3.523499    -2.586167     2.290745
 H    -3.029743    -2.851839     3.242531
 H    -2.781016    -2.774688     1.499463
 C    -4.741277    -3.468757     2.072135
 H    -5.501594    -3.313860     2.855446
 H    -5.218590    -3.249301     1.103154
 H    -4.474533    -4.536516     2.074572
