  98
scf done:    -2754.326983
 C    -0.469390     0.507739    -3.564906
 H     0.056813     0.151650    -4.464616
 H    -1.469927     0.049970    -3.591092
 C    -0.590093     2.026660    -3.623697
 H     0.392958     2.524034    -3.582513
 H    -1.083229     2.363226    -4.554424
 H    -1.190045     2.421886    -2.788326
Ir     0.550772    -0.050320    -1.769820
 O    -2.757829     0.520547    -1.591380
 C    -1.952075    -1.359370     0.238081
 C    -1.603024     1.486830     0.655579
 O     1.620046     0.643303     1.447038
 C     1.606613    -1.940030     1.023649
 C     3.630304    -0.241103    -0.071523
 P     1.818432    -0.374424     0.121335
 P    -1.449466     0.173736    -0.600586
 C     1.800035    -0.876181    -2.876167
 O     2.470560    -1.521974    -3.554972
 C    -4.043877     0.192184    -1.253196
 C    -4.828923     1.077088    -0.516285
 H    -4.404754     2.035688    -0.213213
 C    -4.553429    -1.043316    -1.654767
 H    -3.914856    -1.721340    -2.223040
 C    -6.136085     0.733848    -0.151233
 C    -6.981749     1.702512     0.624158
 H    -6.389572     2.234946     1.383297
 H    -7.416219     2.465957    -0.042476
 H    -7.815027     1.195069     1.130712
 C    -5.851071    -1.388978    -1.293997
 H    -6.254345    -2.358768    -1.595156
 C    -6.634909    -0.513252    -0.542701
 H    -7.651587    -0.798947    -0.259965
 C    -1.391403    -2.564089    -0.201675
 H    -0.617382    -2.533059    -0.973929
 C    -2.948641    -1.374060     1.219665
 H    -3.402869    -0.435594     1.546643
 C    -1.820337    -3.763903     0.354781
 H    -1.375810    -4.705050     0.024220
 C    -3.396336    -2.575227     1.776736
 C    -4.503094    -2.569132     2.790688
 H    -4.316387    -1.830366     3.585029
 H    -5.459926    -2.298026     2.315201
 H    -4.627613    -3.554283     3.261764
 C    -2.811913    -3.767045     1.334476
 H    -3.144529    -4.716068     1.764634
 C    -1.872988     2.789769     0.219562
 H    -2.119045     2.972485    -0.829110
 C    -1.273597     1.264308     1.994324
 H    -1.043216     0.252229     2.333031
 C    -1.808080     3.847016     1.121091
 H    -2.007413     4.865686     0.779986
 C    -1.193306     2.320658     2.906404
 C    -0.827941     2.069473     4.339477
 H    -0.313787     1.104930     4.457213
 H    -0.163837     2.858419     4.721776
 H    -1.723648     2.050367     4.982529
 C    -1.461490     3.615351     2.449708
 H    -1.382645     4.456353     3.143609
 C     1.770567     1.997564     1.386520
 C     1.504084     2.739077     0.237906
 H     1.188214     2.219267    -0.676203
 C     2.179901     2.637498     2.559503
 H     2.398279     2.032236     3.440851
 C     1.612361     4.133733     0.249286
 C     1.278247     4.907152    -0.991945
 H     1.889743     4.575281    -1.845467
 H     0.225499     4.748889    -1.277057
 H     1.437549     5.985723    -0.854669
 C     2.292398     4.022514     2.572510
 H     2.611371     4.528370     3.487347
 C     2.006799     4.770042     1.429074
 H     2.095677     5.859146     1.451483
 C     1.078220    -2.004887     2.312794
 H     0.860604    -1.083342     2.853902
 C     1.900559    -3.121594     0.330947
 H     2.302171    -3.064631    -0.686092
 C     0.839622    -3.251108     2.892867
 H     0.415071    -3.308018     3.898132
 C     1.679609    -4.372148     0.907311
 C     1.993391    -5.636832     0.162155
 H     2.404255    -5.425592    -0.834654
 H     2.727208    -6.250559     0.708197
 H     1.090846    -6.255449     0.031351
 C     1.137053    -4.419080     2.200232
 H     0.942341    -5.389698     2.665282
 C     4.155522     0.523120    -1.115615
 H     3.480950     0.968956    -1.850742
 C     4.491462    -0.800135     0.881429
 H     4.073632    -1.388781     1.702996
 C     5.533926     0.710832    -1.206241
 H     5.948544     1.307940    -2.021733
 C     5.873508    -0.625884     0.797699
 C     6.797838    -1.244347     1.806097
 H     7.464219    -0.489924     2.252623
 H     6.239144    -1.728076     2.619309
 H     7.440558    -2.008250     1.339414
 C     6.380817     0.139489    -0.262617
 H     7.461392     0.288545    -0.345545
