 102
scf done:    -3054.971909
 C     0.890468    -0.666115    -3.411671
 H     0.390808    -0.513022    -4.380620
 H     1.750079     0.020378    -3.391947
 C     1.363918    -2.111129    -3.293891
 H     0.527299    -2.822843    -3.388970
 H     2.099346    -2.375571    -4.078045
 H     1.845369    -2.301675    -2.320214
Ir    -0.402122    -0.375047    -1.742998
 O     2.880143     0.526512    -1.274727
 C     1.161740     2.429925    -0.616590
 C     1.616154     0.188901     1.160766
 O    -1.839541     0.754420     1.134591
 C    -3.411123    -1.226269    -0.051868
 C    -1.150947    -1.733445     1.463467
 P    -1.696045    -0.588404     0.147388
 P     1.349542     0.614805    -0.593381
 C    -1.808439    -0.134807    -2.924884
 O    -2.636183     0.236045    -3.642717
 C     3.989222    -0.169200    -0.920338
 C     4.609516     0.001026     0.318547
 H     4.173918     0.698058     1.032122
 C     4.542808    -1.041997    -1.863642
 H     4.049024    -1.152150    -2.829717
 C     5.760492    -0.724071     0.648768
 C     6.384495    -0.542124     2.002906
 H     5.647226    -0.719799     2.802259
 H     7.229845    -1.227737     2.155798
 H     6.759456     0.486031     2.134648
 C     5.697777    -1.747245    -1.546139
 H     6.132047    -2.427437    -2.283309
 C     6.301190    -1.602025    -0.295282
 H     7.203081    -2.170110    -0.052768
 C     0.044090     2.965956    -1.259041
 H    -0.671128     2.258624    -1.689599
 C     2.127273     3.314666    -0.084311
 O     3.208482     2.768666     0.501228
 C     4.216644     3.596122     1.007778
 H     4.648889     4.239293     0.222477
 H     5.000865     2.930333     1.390423
 H     3.850301     4.231326     1.833178
 C    -0.153767     4.341285    -1.356490
 H    -1.041659     4.728667    -1.857085
 C     1.926080     4.696139    -0.171532
 H     2.659359     5.387423     0.243564
 C     0.789059     5.199711    -0.804755
 H     0.653236     6.282536    -0.869053
 C     1.410210     1.075406     2.215849
 H     1.057916     2.085591     1.998855
 C     2.029758    -1.127846     1.441997
 O     2.134890    -1.942508     0.376397
 C     2.839123    -3.149433     0.495295
 H     3.868112    -2.971212     0.849517
 H     2.882031    -3.580752    -0.512411
 H     2.323425    -3.850949     1.172788
 C     1.662878     0.688935     3.531059
 H     1.502094     1.393385     4.349769
 C     2.320529    -1.509549     2.752801
 H     2.663465    -2.520175     2.972014
 C     2.136856    -0.595121     3.788229
 H     2.353569    -0.903334     4.813996
 C    -2.354496     1.948774     0.758306
 C    -1.994351     3.051172     1.536776
 H    -1.321537     2.885801     2.381265
 C    -3.207141     2.110993    -0.336915
 H    -3.498844     1.257111    -0.949589
 C    -2.456909     4.330627     1.229688
 C    -1.989880     5.514755     2.024378
 H    -1.869138     5.267503     3.089482
 H    -1.008844     5.858018     1.654182
 H    -2.689438     6.359101     1.943580
 C    -3.679022     3.387132    -0.637517
 H    -4.345070     3.517087    -1.494009
 C    -3.313073     4.488126     0.132201
 H    -3.688536     5.482620    -0.122329
 C    -3.691758    -1.984800    -1.189235
 H    -2.896332    -2.121618    -1.925184
 C    -4.421014    -1.066142     0.923546
 O    -4.100992    -0.372743     2.027884
 C    -5.075224    -0.122186     2.999159
 H    -5.924145     0.450125     2.586792
 H    -4.588374     0.478403     3.777698
 H    -5.454914    -1.055448     3.450763
 C    -4.944353    -2.560988    -1.392364
 H    -5.138278    -3.146927    -2.292674
 C    -5.686566    -1.624253     0.709989
 H    -6.478685    -1.489150     1.446406
 C    -5.940463    -2.366838    -0.442164
 H    -6.934014    -2.797628    -0.589348
 C    -1.152644    -1.397347     2.814487
 H    -1.430328    -0.382006     3.096477
 C    -0.799627    -3.040896     1.075165
 O    -0.856544    -3.290762    -0.245803
 C    -0.544932    -4.563552    -0.734972
 H     0.492426    -4.850824    -0.493395
 H    -0.650108    -4.509429    -1.825364
 H    -1.233754    -5.330182    -0.339533
 C    -0.803482    -2.340994     3.780772
 H    -0.801497    -2.064116     4.836891
 C    -0.442534    -3.985934     2.039956
 H    -0.177189    -5.002874     1.749242
 C    -0.449677    -3.627225     3.389616
 H    -0.175618    -4.373615     4.139510
