  80
scf done:    -2193.039881
 C    -1.882151    -2.748484    -0.026839
 H    -1.940152    -3.561350     0.716051
 H    -2.824730    -2.192320     0.111070
 C    -1.859926    -3.350849    -1.428484
 H    -0.988950    -4.009764    -1.570650
 H    -2.763655    -3.952951    -1.640424
 H    -1.797110    -2.579800    -2.216330
Ir    -0.091520    -1.576223     0.206615
 C    -2.767084     0.255938    -1.169363
 C    -2.760121    -0.067502     1.782122
 C    -1.215729     2.056492     0.502684
 C     2.958966     0.180106     1.213752
 C     3.205835    -2.203072    -0.491179
 C     2.195613     0.378426    -1.677835
 P     2.076519    -0.735815    -0.179266
 P    -1.622806     0.242929     0.313240
 C     0.587577    -3.121731     0.933964
 O     0.916636    -4.051613     1.539417
 H    -2.189954     0.729225    -1.977674
 H    -2.875925    -0.800489    -1.447613
 C    -4.111669     0.892871    -1.012372
 C    -5.218890     0.116532    -0.644059
 H    -5.098410    -0.963248    -0.521627
 C    -4.303921     2.269418    -1.190980
 H    -3.465798     2.897344    -1.501856
 C    -6.467865     0.690491    -0.426325
 H    -7.331745     0.089739    -0.136369
 C    -5.546300     2.861325    -0.978385
 H    -5.701180     3.933097    -1.114787
 C    -6.614256     2.062651    -0.588454
 F    -7.804916     2.622048    -0.379383
 H    -3.452807    -0.821316     1.373437
 C    -2.019949    -0.719776     2.946575
 H    -2.743796    -1.046820     3.710257
 H    -1.436435    -1.587583     2.607314
 H    -1.321041    -0.020511     3.430548
 C    -3.594927     1.118938     2.255466
 H    -4.161336     1.602805     1.449565
 H    -4.324664     0.766114     3.001707
 H    -2.978391     1.883615     2.751530
 H    -2.186075     2.550740     0.675793
 C    -0.335160     2.266667     1.727657
 H    -0.058369     3.328340     1.830120
 H    -0.831341     1.960886     2.658221
 H     0.589111     1.678186     1.646155
 C    -0.588700     2.672656    -0.738976
 H    -1.237229     2.612548    -1.624063
 H    -0.374082     3.738948    -0.562444
 H     0.358453     2.181945    -0.995820
 H     2.141968     0.516765     1.865758
 H     3.488489    -0.599110     1.782270
 C     3.869237     1.328027     0.890411
 C     5.264192     1.199494     0.912472
 H     5.714471     0.248500     1.202442
 C     3.339385     2.582874     0.553837
 H     2.258295     2.733233     0.567663
 C     6.101300     2.259637     0.574181
 H     7.187809     2.157201     0.591485
 C     4.158394     3.653624     0.208765
 H     3.744197     4.627991    -0.056450
 C     5.536009     3.475530     0.213217
 F     6.328243     4.493475    -0.118968
 H     2.964819    -2.835436     0.380056
 C     2.752403    -2.962629    -1.734813
 H     3.218446    -3.960324    -1.758514
 H     1.659236    -3.095702    -1.743736
 H     3.045596    -2.441672    -2.658911
 C     4.713913    -1.989130    -0.471336
 H     5.061260    -1.595338     0.492733
 H     5.215311    -2.960016    -0.616063
 H     5.068608    -1.315349    -1.261326
 H     1.933702     1.356533    -1.243169
 C     3.555117     0.543549    -2.346645
 H     3.487034     1.328130    -3.117798
 H     4.340762     0.843217    -1.640864
 H     3.873416    -0.379104    -2.852869
 C     1.117259     0.017265    -2.696504
 H     0.135978    -0.115197    -2.214672
 H     1.031990     0.810192    -3.457218
 H     1.351255    -0.922227    -3.217385
