  94
scf done:    -3222.924235
 C    -2.454169     2.977060    -0.717414
 H    -2.769157     3.446538    -1.662844
 H    -3.374441     2.519534    -0.317523
 C    -1.931225     4.038165     0.244955
 H    -1.042577     4.553320    -0.152669
 H    -2.691534     4.811625     0.459300
 H    -1.630727     3.609781     1.216679
Ir    -0.872421     1.563858    -1.055945
 C    -2.671700     0.371852     1.849507
 O    -3.657754     0.050626    -0.672388
 O    -1.809983    -1.489843     0.231330
 C     1.756093    -0.792966    -2.148019
 O     2.378635     1.482138    -1.013017
 O     1.211124    -0.278452     0.529255
 P     1.082039     0.429140    -0.957634
 P    -2.193050     0.118948     0.101608
 C    -0.336267     2.619050    -2.518476
 O    -0.109295     3.179279    -3.495552
 H    -2.910622     1.444684     1.924427
 H    -3.598512    -0.193759     2.028325
 C    -1.601248    -0.030636     2.820775
 C    -1.662337    -1.276198     3.452606
 H    -2.497396    -1.948262     3.240156
 C    -0.522981     0.816124     3.093810
 H    -0.476791     1.789541     2.596060
 C    -0.670823    -1.649070     4.356434
 H    -0.732316    -2.615584     4.862900
 C     0.491899     0.447710     3.982394
 C     1.674907     1.338542     4.222910
 H     1.443875     2.390814     4.004568
 H     2.023092     1.274484     5.264019
 H     2.519090     1.040605     3.578250
 C     0.396934    -0.795323     4.618610
 H     1.176907    -1.098581     5.321999
 C    -4.772302    -0.585612    -0.186838
 C    -5.835694     0.194234     0.269741
 H    -5.740763     1.281670     0.248785
 C    -4.866776    -1.978241    -0.186918
 H    -4.038298    -2.579050    -0.562928
 C    -6.996580    -0.415409     0.735785
 H    -7.843328     0.171333     1.096087
 C    -6.026251    -2.591016     0.282002
 H    -6.128792    -3.677539     0.291255
 C    -7.075812    -1.803494     0.739427
 F    -8.183413    -2.390943     1.187767
 C    -1.355291    -2.258753    -0.799049
 C    -0.617666    -3.395368    -0.461118
 H    -0.421860    -3.600571     0.591628
 C    -1.637632    -1.977310    -2.139706
 H    -2.219503    -1.092843    -2.405163
 C    -0.148823    -4.246374    -1.456526
 H     0.428738    -5.140441    -1.215135
 C    -1.163080    -2.827481    -3.137622
 H    -1.365222    -2.624738    -4.190663
 C    -0.423394    -3.949816    -2.787842
 F     0.027373    -4.761197    -3.741820
 H     0.998400    -1.587598    -2.192265
 H     1.705415    -0.257481    -3.110528
 C     3.123815    -1.351618    -1.888027
 C     4.274335    -0.626258    -2.209248
 H     4.181569     0.354598    -2.679586
 C     3.262402    -2.606216    -1.283130
 H     2.362035    -3.173931    -1.036128
 C     5.531143    -1.146124    -1.907607
 H     6.428342    -0.575842    -2.161023
 C     4.513176    -3.134437    -0.959867
 C     4.641675    -4.459835    -0.267123
 H     5.272478    -5.155226    -0.842923
 H     5.106922    -4.340031     0.724116
 H     3.660275    -4.931921    -0.119795
 C     5.651204    -2.383506    -1.281848
 H     6.642371    -2.777011    -1.039271
 C     2.275155     2.741492    -0.481447
 C     2.627034     3.828376    -1.279841
 H     2.948817     3.650037    -2.307059
 C     1.842324     2.939594     0.830991
 H     1.576437     2.079342     1.445294
 C     2.543270     5.120416    -0.768596
 H     2.806218     5.989510    -1.373925
 C     1.753370     4.230501     1.343365
 H     1.412185     4.415183     2.363546
 C     2.103455     5.306161     0.537064
 F     2.017520     6.542648     1.026200
 C     2.258974    -0.885671     1.169030
 C     3.563104    -0.389153     1.139608
 H     3.798009     0.501709     0.559680
 C     1.951975    -2.020689     1.917138
 H     0.912123    -2.342784     1.968015
 C     4.572564    -1.078037     1.805971
 H     5.607115    -0.734096     1.766721
 C     2.958009    -2.705287     2.590237
 H     2.744624    -3.602417     3.174006
 C     4.261640    -2.233269     2.510342
 F     5.240314    -2.914913     3.114089
