 100
scf done:    -3102.966787
 C    -1.256021    -2.919671    -1.665428
 H    -1.343815    -3.988094    -1.403858
 H    -2.292001    -2.538507    -1.615859
 C    -0.740589    -2.792678    -3.095862
 H     0.258789    -3.241294    -3.209545
 H    -1.410127    -3.288761    -3.823473
 H    -0.647472    -1.739254    -3.412036
Ir     0.097774    -1.866674    -0.379482
 C    -2.237806     0.371389    -1.544734
 C    -3.167622    -1.316737     0.752297
 C    -1.586326     0.894662     1.301242
 C     2.232318     0.322701     1.840616
 C     3.449443    -0.754251    -0.490391
 C     1.325727     1.121415    -0.849752
 P     1.779192    -0.349539     0.144087
 P    -1.724725    -0.433739     0.053626
 C     1.069657    -3.436534    -0.310143
 O     1.543295    -4.480023    -0.149207
 H    -1.409297     1.061759    -1.762062
 H    -2.133202    -0.457043    -2.261768
 C    -3.560265     1.047915    -1.740382
 C    -4.753604     0.313165    -1.760904
 H    -4.721771    -0.768075    -1.611206
 C    -3.630577     2.427863    -1.976231
 H    -2.708563     3.015614    -2.018339
 C    -5.981111     0.935468    -1.967212
 H    -6.913556     0.368257    -1.977789
 C    -4.850750     3.066643    -2.185559
 H    -4.910536     4.140731    -2.370301
 C    -6.015240     2.310013    -2.167946
 F    -7.188203     2.912985    -2.362625
 C    -4.304810    -0.610072     1.182107
 H    -4.347847     0.475955     1.075932
 C    -3.125236    -2.695951     0.961329
 H    -2.224915    -3.243049     0.670641
 C    -5.377462    -1.270591     1.755494
 H    -6.266337    -0.730807     2.087025
 C    -4.195391    -3.372521     1.545590
 H    -4.123459    -4.449999     1.694328
 C    -5.335309    -2.662092     1.937008
 O    -6.421433    -3.219107     2.502849
 C    -6.433589    -4.601802     2.727027
 H    -5.626502    -4.913198     3.413129
 H    -7.401424    -4.837128     3.187423
 H    -6.337763    -5.170873     1.785682
 C    -1.057262     0.529361     2.550159
 H    -0.730409    -0.503194     2.707621
 C    -2.008031     2.210846     1.123300
 H    -2.441305     2.525589     0.175177
 C    -0.930533     1.455200     3.572033
 H    -0.514871     1.179664     4.543054
 C    -1.881978     3.157832     2.141479
 H    -2.219032     4.178678     1.960243
 C    -1.335661     2.785187     3.374262
 O    -1.167670     3.618866     4.416201
 C    -1.553130     4.958488     4.280288
 H    -2.633933     5.055823     4.076577
 H    -1.326104     5.449566     5.234764
 H    -0.992910     5.466494     3.475392
 H     1.409510     0.975679     2.162060
 H     2.190873    -0.565579     2.488630
 C     3.569454     0.986813     1.932791
 C     4.708935     0.227824     2.234599
 H     4.599682    -0.836064     2.457278
 C     3.744486     2.346973     1.649293
 H     2.879045     2.969498     1.416703
 C     5.980176     0.790343     2.231611
 H     6.868977     0.197812     2.454718
 C     5.010017     2.929104     1.644851
 H     5.150783     3.988428     1.422704
 C     6.115936     2.139197     1.927952
 F     7.331520     2.687801     1.916392
 C     4.274841     0.224287    -1.069734
 H     3.887031     1.229707    -1.244257
 C     3.992355    -2.018738    -0.260690
 H     3.383626    -2.802019     0.192667
 C     5.587012    -0.057597    -1.409546
 H     6.232733     0.700338    -1.856603
 C     5.314559    -2.315673    -0.590747
 H     5.696685    -3.318030    -0.396923
 C     6.122503    -1.331357    -1.169443
 O     7.407591    -1.514265    -1.525664
 C     7.998691    -2.763871    -1.303516
 H     7.485408    -3.566511    -1.861787
 H     9.034074    -2.690224    -1.659428
 H     8.008077    -3.028847    -0.231380
 C     0.842800     2.317697    -0.305747
 H     0.831111     2.471408     0.773772
 C     1.280792     0.968945    -2.243008
 H     1.641570     0.039865    -2.692520
 C     0.320665     3.316269    -1.117319
 H    -0.073108     4.240311    -0.689957
 C     0.760799     1.961936    -3.069825
 H     0.731607     1.795521    -4.146646
 C     0.258638     3.142026    -2.504506
 O    -0.320089     4.137962    -3.205431
 C    -0.467736     3.989635    -4.592049
 H    -1.088036     3.111652    -4.843940
 H    -0.970425     4.895628    -4.952828
 H     0.507573     3.896736    -5.100420
