 116
scf done:    -3560.723836
 C    -1.278436    -3.167214     0.137906
 H    -0.968998    -3.862341     0.937644
 H    -2.264011    -2.793599     0.468153
 C    -1.461153    -3.963796    -1.150820
 H    -0.526819    -4.463256    -1.455015
 H    -2.232918    -4.751454    -1.056618
 H    -1.763664    -3.329300    -2.001857
Ir     0.174058    -1.575246     0.017103
 C    -2.612751    -0.458585    -1.351678
 C    -2.914882    -0.525222     1.638309
 C    -1.653778     1.693593     0.585704
 C     2.698496     0.135138     1.493412
 C     3.172422    -0.060176    -1.392410
 C     1.284131     1.818725    -0.636909
 P     1.795435     0.092727    -0.160587
 P    -1.744733    -0.129048     0.272675
 C     1.380686    -2.925726    -0.217148
 O     2.102286    -3.826513    -0.346090
 H    -2.264895     0.343946    -2.010001
 H    -2.094759    -1.375107    -1.668710
 C    -4.090113    -0.663460    -1.482007
 C    -4.732090    -1.731849    -0.840893
 H    -4.152043    -2.401894    -0.202862
 C    -4.858055     0.155413    -2.317101
 H    -4.373383     0.981210    -2.839818
 C    -6.097103    -1.956142    -0.999278
 H    -6.599718    -2.784018    -0.495974
 C    -6.222594    -0.059754    -2.497646
 H    -6.822764     0.574842    -3.152693
 C    -6.828824    -1.113394    -1.826361
 F    -8.138606    -1.323931    -1.985409
 C    -4.186825     0.083042     1.676124
 O    -4.428426     0.999793     0.727596
 C    -5.689666     1.596769     0.635196
 H    -5.649102     2.266832    -0.232093
 H    -6.480904     0.847880     0.465438
 H    -5.925730     2.186818     1.537530
 C    -2.557698    -1.377911     2.705090
 O    -1.292294    -1.800834     2.746073
 C    -0.917397    -2.854255     3.584991
 H     0.111631    -3.110993     3.301957
 H    -1.559800    -3.738800     3.439229
 H    -0.942106    -2.560742     4.650010
 C    -3.497909    -1.727185     3.685862
 H    -3.228234    -2.411676     4.489141
 C    -5.124874    -0.255257     2.659075
 H    -6.116931     0.193531     2.661666
 C    -4.770970    -1.173106     3.640804
 H    -5.501667    -1.446936     4.405925
 C    -2.192676     2.743696    -0.175453
 O    -2.692744     2.443943    -1.393673
 C    -3.175167     3.476213    -2.203250
 H    -3.466827     3.018482    -3.157886
 H    -4.060410     3.967520    -1.762348
 H    -2.399382     4.235884    -2.397246
 C    -1.077591     2.017428     1.830001
 O    -0.515850     0.980684     2.472729
 C    -0.026324     1.128195     3.772269
 H     0.321559     0.134595     4.079701
 H    -0.814615     1.467380     4.466436
 H     0.821389     1.833518     3.807995
 C    -1.112794     3.314676     2.348262
 H    -0.690612     3.534665     3.327998
 C    -2.220012     4.051244     0.329351
 H    -2.648994     4.861957    -0.256655
 C    -1.697139     4.319902     1.587482
 H    -1.737359     5.339820     1.977790
 H     2.638768     1.149272     1.891758
 H     2.050721    -0.516181     2.099316
 C     4.112366    -0.361299     1.533196
 C     4.476938    -1.618835     1.032977
 H     3.721458    -2.275291     0.600955
 C     5.119191     0.435168     2.090681
 H     4.855928     1.416564     2.493616
 C     5.798339    -2.055495     1.063382
 H     6.082187    -3.030519     0.663660
 C     6.446779     0.014590     2.135467
 H     7.232585     0.634565     2.571660
 C     6.770942    -1.229202     1.609806
 F     8.042195    -1.638694     1.637838
 C     4.265562     0.827753    -1.304754
 O     4.150911     1.815070    -0.397150
 C     5.177275     2.752509    -0.261573
 H     4.848808     3.460945     0.509527
 H     6.119553     2.281237     0.066434
 H     5.351434     3.303648    -1.201839
 C     3.205149    -1.034321    -2.413163
 O     2.107127    -1.778819    -2.594123
 C     2.136964    -2.897391    -3.432841
 H     1.156938    -3.380341    -3.326484
 H     2.919514    -3.612999    -3.130063
 H     2.288850    -2.615057    -4.490074
 C     4.343577    -1.190721    -3.219108
 H     4.375105    -1.966805    -3.982374
 C     5.397814     0.683626    -2.113451
 H     6.248576     1.355271    -2.011571
 C     5.428184    -0.341531    -3.050652
 H     6.314152    -0.470752    -3.677062
 C     0.706261     1.886813    -1.922585
 O     0.523721     0.699610    -2.524127
 C     0.100910     0.624185    -3.851709
 H     0.083116    -0.443600    -4.101604
 H    -0.913263     1.041375    -3.984448
 H     0.797075     1.147084    -4.530506
 C     1.457471     3.031961     0.053170
 O     1.969732     2.983750     1.304627
 C     2.239459     4.172518     1.987353
 H     2.679985     3.884374     2.951670
 H     1.321715     4.755108     2.174760
 H     2.960298     4.806260     1.441216
 C     1.112920     4.253742    -0.539445
 H     1.246918     5.187656     0.003009
 C     0.366558     3.101593    -2.525525
 H    -0.058922     3.124734    -3.528077
 C     0.581044     4.279154    -1.821807
 H     0.323870     5.238726    -2.277119
