 106
scf done:    -2983.307459
 C     2.688071     0.603521    -2.725132
 H     3.477683     1.299014    -2.395381
 H     3.175664    -0.388720    -2.717954
 C     2.268057     0.936354    -4.152478
 H     1.888060     1.967149    -4.235312
 H     3.108628     0.838549    -4.863915
 H     1.461974     0.279518    -4.520943
Ir     1.028548     0.714763    -1.363450
 C     1.890899    -2.781469    -1.344186
 O     3.344384    -1.141495     0.155097
 O     0.932668    -1.630615     0.921094
 C    -1.992828    -0.818619    -0.459642
 O    -0.940837     0.701047     1.432112
 O    -1.889616     1.935299    -0.657604
 P    -0.930902     0.652277    -0.229510
 P     1.797687    -1.200779    -0.417750
 C     0.969356     2.577925    -1.609791
 O     1.046892     3.725354    -1.568687
 H     2.661982    -2.625693    -2.114564
 H     2.231435    -3.584325    -0.673878
 C     0.542228    -3.051690    -1.945200
 C    -0.309389    -4.030591    -1.420581
 H     0.032152    -4.663298    -0.597863
 C     0.081498    -2.241028    -2.988288
 H     0.740214    -1.465711    -3.390903
 C    -1.592579    -4.185738    -1.938867
 H    -2.256220    -4.948501    -1.524946
 C    -1.207175    -2.380815    -3.515054
 C    -1.673140    -1.462329    -4.606736
 H    -2.719401    -1.655935    -4.881532
 H    -1.587413    -0.409002    -4.293738
 H    -1.057884    -1.575488    -5.513308
 C    -2.039662    -3.366168    -2.974796
 H    -3.053710    -3.488426    -3.364917
 C     4.166028    -0.035012     0.111833
 C     3.753705     1.202599     0.593138
 H     2.758365     1.312949     1.030103
 C     5.432625    -0.215531    -0.439104
 H     5.717423    -1.203198    -0.805533
 C     4.604850     2.310201     0.479079
 C     4.139289     3.661645     0.931060
 H     3.852407     3.645532     1.992706
 H     4.918536     4.423529     0.791135
 H     3.247800     3.973817     0.364824
 C     6.289099     0.876285    -0.524438
 H     7.284510     0.751545    -0.957108
 C     5.873451     2.131186    -0.081077
 H     6.544156     2.989327    -0.172141
 C     1.062971    -2.755158     1.696286
 C     2.298279    -3.188377     2.173361
 H     3.196694    -2.630263     1.906266
 C    -0.111036    -3.433104     2.032064
 H    -1.067507    -3.074698     1.649501
 C     2.380165    -4.324757     2.989405
 C     3.715838    -4.779487     3.502232
 H     4.424628    -4.945799     2.676157
 H     4.164609    -4.020181     4.162365
 H     3.631858    -5.714869     4.072397
 C    -0.030346    -4.555880     2.847815
 H    -0.944127    -5.091489     3.115887
 C     1.203840    -5.003444     3.319921
 H     1.254286    -5.889558     3.957485
 H    -2.201151    -0.830332    -1.539379
 H    -1.301309    -1.657244    -0.283111
 C    -3.257684    -0.984259     0.331488
 C    -3.232596    -1.183165     1.718728
 H    -2.278639    -1.181087     2.246721
 C    -4.491415    -0.970118    -0.321574
 H    -4.515057    -0.817000    -1.404335
 C    -4.422541    -1.347559     2.419580
 H    -4.396078    -1.502549     3.501275
 C    -5.698045    -1.120374     0.370255
 C    -7.003896    -1.061139    -0.366301
 H    -7.157919    -0.058995    -0.797577
 H    -7.028981    -1.781673    -1.198699
 H    -7.852794    -1.278839     0.296931
 C    -5.647339    -1.311394     1.753629
 H    -6.578009    -1.433642     2.314652
 C    -0.046490     1.461638     2.135301
 C     0.096849     2.823005     1.872367
 H    -0.491905     3.277883     1.072599
 C     0.695636     0.843337     3.140932
 H     0.578696    -0.228029     3.307942
 C     0.981690     3.600766     2.626531
 C     1.108495     5.069868     2.347346
 H     1.111442     5.268226     1.265181
 H     0.259279     5.625502     2.778142
 H     2.030020     5.485953     2.778149
 C     1.575771     1.615617     3.892981
 H     2.166849     1.143817     4.681460
 C     1.716957     2.980680     3.642874
 H     2.412594     3.573593     4.242495
 C    -3.222146     2.109313    -0.374035
 C    -3.687723     2.171960     0.936558
 H    -2.984593     2.046067     1.760678
 C    -4.093007     2.264999    -1.452104
 H    -3.691952     2.227033    -2.466479
 C    -5.050740     2.356265     1.191624
 C    -5.549590     2.373027     2.606261
 H    -5.444692     1.374263     3.059187
 H    -4.972469     3.076087     3.226160
 H    -6.609199     2.659619     2.658067
 C    -5.446316     2.466555    -1.200995
 H    -6.138245     2.594833    -2.037167
 C    -5.923453     2.505111     0.108572
 H    -6.989628     2.656858     0.295625
