  88
scf done:    -3342.721869
 C    -2.259919    -2.901898    -1.884107
 H    -2.050070    -3.982751    -1.862084
 H    -3.146329    -2.777504    -1.235655
 C    -2.592524    -2.467109    -3.307869
 H    -1.753403    -2.656605    -3.995699
 H    -3.467654    -3.007450    -3.716612
 H    -2.816403    -1.388901    -3.367016
Ir    -0.560958    -1.750036    -1.257228
 C    -2.766857    -0.916787     1.280993
 O    -1.318762     1.109354     0.110903
 O    -3.384307     0.195102    -1.123705
 C     1.513030     0.091127     0.938914
 O     2.629648    -1.077649    -1.351228
 O     1.206697     1.043209    -1.647679
 P     1.210947    -0.399530    -0.828173
 P    -2.036696    -0.328407    -0.304599
 C     0.500550    -3.302137    -1.278374
 O     1.101474    -4.265700    -1.102865
 H    -3.330636    -0.088907     1.736104
 H    -3.497042    -1.693146     1.000373
 C    -1.721414    -1.451918     2.213729
 C    -1.138705    -2.706291     1.984010
 H    -1.486509    -3.314984     1.147405
 C    -1.263801    -0.692090     3.294735
 H    -1.724166     0.276316     3.504361
 C    -0.112949    -3.178293     2.795607
 H     0.349281    -4.151240     2.619607
 C    -0.229447    -1.146621     4.112170
 H     0.141531    -0.556465     4.951640
 C     0.341834    -2.382970     3.841401
 F     1.345549    -2.817992     4.597865
 C    -1.865902     2.242406     0.646181
 C    -1.417732     2.674003     1.894862
 H    -0.687444     2.068673     2.433174
 C    -2.759977     3.023898    -0.089373
 H    -3.079413     2.684749    -1.075355
 C    -1.876152     3.877620     2.422575
 H    -1.534052     4.240662     3.393234
 C    -3.226370     4.224951     0.439136
 H    -3.926744     4.853117    -0.114262
 C    -2.780814     4.637299     1.689828
 F    -3.222891     5.787193     2.192024
 C    -4.706484     0.000663    -0.800325
 C    -5.343056     0.815657     0.137307
 H    -4.782671     1.605839     0.639189
 C    -5.422576    -0.994021    -1.467645
 H    -4.911168    -1.609503    -2.208319
 C    -6.693228     0.625108     0.420799
 H    -7.212444     1.248152     1.151066
 C    -6.772599    -1.184717    -1.189126
 H    -7.353170    -1.955816    -1.698375
 C    -7.391995    -0.374856    -0.244179
 F    -8.681933    -0.558277     0.026549
 H     1.476506     1.186729     1.013357
 H     0.618315    -0.293960     1.450162
 C     2.744953    -0.450226     1.595186
 C     2.945712    -1.832134     1.713260
 H     2.207506    -2.521742     1.298460
 C     3.710006     0.410362     2.127517
 H     3.570627     1.491222     2.044781
 C     4.074937    -2.343371     2.343029
 H     4.236234    -3.417915     2.443162
 C     4.849035    -0.084127     2.759772
 H     5.606301     0.580580     3.179068
 C     5.016600    -1.459046     2.859416
 F     6.099882    -1.941679     3.464781
 C     3.775678    -0.418572    -1.714925
 C     4.918090    -0.530974    -0.922183
 H     4.883829    -1.132897    -0.014486
 C     3.810087     0.319242    -2.900733
 H     2.911951     0.383569    -3.515297
 C     6.089509     0.122033    -1.297844
 H     6.995248     0.049967    -0.693262
 C     4.977674     0.976941    -3.275157
 H     5.027269     1.567778    -4.191319
 C     6.102661     0.876341    -2.464862
 F     7.220049     1.509760    -2.819402
 C     1.497832     2.302888    -1.204407
 C     2.739429     2.638655    -0.659086
 H     3.522956     1.883997    -0.574037
 C     0.508752     3.277402    -1.342629
 H    -0.445658     2.991761    -1.783896
 C     2.976441     3.942426    -0.227896
 H     3.938692     4.228298     0.200634
 C     0.741775     4.579879    -0.915264
 H    -0.024592     5.351932    -1.003360
 C     1.974153     4.896104    -0.354804
 F     2.200221     6.140177     0.064863
