  88
scf done:    -4783.851042
 C    -1.001327    -1.813719    -2.864041
 H    -0.467981    -2.638340    -3.363135
 H    -1.818011    -2.307986    -2.307608
 C    -1.597798    -0.873316    -3.906972
 H    -0.818097    -0.418064    -4.537911
 H    -2.297264    -1.393766    -4.587952
 H    -2.155626    -0.046104    -3.437097
Ir     0.324429    -0.666285    -1.618529
 C    -1.800969    -2.228066     0.662304
 O    -1.155134     0.391919     1.143948
 O    -2.876412    -0.136158    -0.708740
 C     2.226202     0.419652     1.251846
 O     3.009326     1.100928    -1.299604
 O     1.062548     2.300214    -0.118389
 P     1.632368     0.766699    -0.452370
 P    -1.402055    -0.630257    -0.148447
 C     1.781063    -1.355529    -2.595468
 O     2.672707    -1.878024    -3.092396
 H    -2.450103    -2.022600     1.527233
 H    -2.402712    -2.796664    -0.063548
 C    -0.568440    -2.990777     1.049933
 C     0.025115    -3.879456     0.144381
 H    -0.413873    -4.011465    -0.846713
 C     0.027413    -2.819614     2.303761
 H    -0.415995    -2.128604     3.024172
 C     1.163150    -4.601268     0.489456
 H     1.626821    -5.302391    -0.206608
 C     1.172711    -3.526662     2.661787
 H     1.647520    -3.396877     3.635356
 C     1.722736    -4.414718     1.747474
 F     2.820180    -5.092056     2.076248
 C    -2.145982     0.909043     1.935955
 C    -2.320762     0.427183     3.232183
 H    -1.666964    -0.361591     3.607359
 C    -2.958912     1.933694     1.448500
 H    -2.814841     2.294071     0.430776
 C    -3.320209     0.961220     4.043208
 H    -3.468046     0.593589     5.059668
 C    -3.955885     2.469703     2.254660
 H    -4.598584     3.266597     1.877354
 C    -4.137345     1.977006     3.548076
Cl    -5.384566     2.635956     4.550063
 C    -4.086988    -0.779893    -0.619585
 C    -4.820182    -0.793237     0.567492
 H    -4.430667    -0.301019     1.458780
 C    -4.596083    -1.388009    -1.767114
 H    -4.012704    -1.355801    -2.688083
 C    -6.058933    -1.427032     0.608179
 H    -6.640495    -1.442260     1.531101
 C    -5.835327    -2.018894    -1.729146
 H    -6.242589    -2.496509    -2.621484
 C    -6.561341    -2.039778    -0.538584
Cl    -8.100585    -2.828877    -0.485597
 H     2.479988     1.376129     1.729367
 H     1.330446     0.025993     1.760578
 C     3.379762    -0.539360     1.301028
 C     3.320337    -1.775394     0.646587
 H     2.403326    -2.062272     0.123826
 C     4.556621    -0.193270     1.973241
 H     4.627541     0.775956     2.473149
 C     4.411732    -2.638691     0.646514
 H     4.375214    -3.605177     0.141842
 C     5.654011    -1.048398     1.990227
 H     6.579590    -0.780277     2.502356
 C     5.567960    -2.261262     1.318327
 F     6.618535    -3.080621     1.318376
 C     4.185384     1.590974    -0.801426
 C     5.347581     0.878407    -1.096310
 H     5.267248    -0.034174    -1.689424
 C     4.241994     2.759434    -0.042572
 H     3.327361     3.321184     0.152942
 C     6.570358     1.313086    -0.602572
 H     7.484671     0.755592    -0.810681
 C     5.467241     3.191684     0.461049
 H     5.530598     4.099085     1.063788
 C     6.622718     2.462619     0.187100
Cl     8.142443     2.989220     0.833041
 C    -0.059449     2.902123    -0.600938
 C    -0.518265     4.010135     0.116140
 H     0.034280     4.327510     1.001964
 C    -0.743835     2.480879    -1.743007
 H    -0.370530     1.626900    -2.323503
 C    -1.668958     4.678319    -0.284341
 H    -2.036243     5.538084     0.278058
 C    -1.911702     3.133191    -2.131176
 H    -2.463959     2.791508    -3.007884
 C    -2.375334     4.224301    -1.398733
Cl    -3.846596     5.015012    -1.862434
