  76
scf done:    -2142.193829
 C    -0.933419    -3.168176    -1.256077
 H    -1.816337    -3.656580    -0.827983
 H    -1.000432    -3.038862    -2.340657
 C     0.350122    -3.433177    -0.658610
 H     0.392215    -4.106644     0.204759
 H     1.236919    -3.493885    -1.296724
 H     0.513752    -1.101009    -1.655669
Ir    -0.232770    -1.412656    -0.222606
 C    -1.557156     0.856202    -2.567981
 C    -3.435898     0.108344    -0.569380
 C    -1.396168     1.946901     0.095709
 C     1.536416     0.069869     2.477397
 C     3.216001    -1.085988     0.526206
 C     1.925679     1.394374    -0.053743
 P     1.584603    -0.252899     0.672654
 P    -1.630451     0.368114    -0.806108
 C    -1.066777    -1.826393     1.444672
 O    -1.550920    -2.055583     2.464181
 H    -0.537726     1.185926    -2.811538
 H    -1.780727    -0.042870    -3.158084
 H    -2.284295     1.645044    -2.809235
 C    -4.328488     1.189240    -0.553954
 H    -3.954237     2.212674    -0.641378
 C    -3.927482    -1.189195    -0.433475
 H    -3.214542    -2.017924    -0.443560
 C    -5.690956     0.954548    -0.407631
 H    -6.389510     1.794899    -0.391038
 C    -5.298020    -1.439992    -0.284153
 C    -5.793594    -2.847758    -0.123205
 H    -5.443317    -3.489664    -0.946426
 H    -5.418411    -3.292291     0.812609
 H    -6.891526    -2.891001    -0.100619
 C    -6.171006    -0.349487    -0.274291
 H    -7.244370    -0.521846    -0.154816
 C    -1.086961     3.158191    -0.522670
 H    -0.977683     3.220500    -1.606357
 C    -1.508690     1.902431     1.492565
 H    -1.752496     0.951123     1.976436
 C    -0.894686     4.302738     0.253167
 H    -0.641683     5.247507    -0.233867
 C    -1.320093     3.037534     2.279955
 C    -1.436425     2.971978     3.775338
 H    -0.493858     3.270871     4.261644
 H    -2.219192     3.653031     4.145162
 H    -1.685468     1.957067     4.115366
 C    -1.009758     4.245417     1.636416
 H    -0.852753     5.148455     2.233248
 H     1.404555    -0.898888     2.978944
 H     2.464618     0.535206     2.838466
 H     0.672420     0.707328     2.712910
 C     3.280333    -2.455982     0.801886
 H     2.360974    -2.999826     1.030069
 C     4.388111    -0.395130     0.204093
 H     4.343052     0.675719    -0.011186
 C     4.507141    -3.112456     0.766290
 H     4.557632    -4.181387     0.987889
 C     5.624830    -1.047902     0.146308
 C     6.866783    -0.300758    -0.246448
 H     7.052623    -0.389334    -1.330032
 H     6.781462     0.771072    -0.016549
 H     7.755237    -0.693781     0.269377
 C     5.668388    -2.415510     0.438276
 H     6.626417    -2.942172     0.404431
 C     2.139957     2.539822     0.714898
 H     2.098631     2.498579     1.803937
 C     1.972642     1.493332    -1.450877
 H     1.795916     0.592389    -2.045639
 C     2.399419     3.758237     0.087064
 H     2.559429     4.653492     0.692746
 C     2.230098     2.705676    -2.092112
 C     2.241727     2.798085    -3.590681
 H     2.308872     1.803915    -4.054171
 H     1.320707     3.276980    -3.963717
 H     3.087394     3.402703    -3.951769
 C     2.446916     3.841838    -1.299629
 H     2.650173     4.803317    -1.779931
