  92
scf done:    -2996.865687
 C     1.451790    -1.304507    -3.206754
 H     1.396323    -0.754204    -4.150932
 H     2.473221    -1.504719    -2.872391
 C     0.407925    -2.224591    -2.869771
 H    -0.431354    -2.364675    -3.557308
 H     0.652303    -3.116989    -2.287235
 H     1.301796    -1.265585    -0.685668
Ir     0.233700    -0.466289    -1.617712
 C     0.774203     3.043261    -1.004844
 O     1.125019     1.218477     0.986497
 O     2.882071     1.528803    -0.902297
 C    -2.527963     0.114816     0.648104
 O    -2.107099    -2.399354    -0.332110
 O    -0.626326    -1.360961     1.537266
 P    -1.245896    -1.021316     0.027693
 P     1.247995     1.316679    -0.674373
 C    -0.912950     0.463170    -2.861619
 O    -1.554578     1.029561    -3.627269
 H     1.487141     3.710981    -0.494953
 H     0.922394     3.179156    -2.089210
 C    -0.663482     3.343938    -0.605757
 H    -1.333027     2.585175    -1.044411
 H    -0.768111     3.247591     0.488658
 C    -1.125679     4.728398    -1.036360
 H    -0.995860     4.831272    -2.128785
 H    -0.470741     5.492683    -0.580683
 C    -2.575493     5.014467    -0.671900
 H    -3.219177     4.249465    -1.139883
 H    -2.705714     4.889065     0.417935
 C    -3.045943     6.398345    -1.087385
 H    -4.099338     6.565662    -0.815974
 H    -2.957326     6.539363    -2.176480
 H    -2.447910     7.187131    -0.603576
 C     1.472713     2.152094     1.920040
 C     0.570068     2.360106     2.966772
 H    -0.364751     1.795858     2.971597
 C     2.686674     2.843905     1.893282
 H     3.392561     2.666272     1.081752
 C     0.870398     3.261299     3.983142
 H     0.181099     3.437196     4.810866
 C     2.984292     3.752754     2.906786
 H     3.925060     4.306240     2.908599
 C     2.075891     3.952441     3.938368
 F     2.366330     4.820027     4.906851
 C     3.767420     0.486875    -1.024272
 C     4.585644     0.452364    -2.151771
 H     4.476257     1.230869    -2.908409
 C     3.873535    -0.496898    -0.040989
 H     3.224099    -0.466502     0.834968
 C     5.517447    -0.570495    -2.301605
 H     6.169677    -0.624047    -3.174927
 C     4.799999    -1.526123    -0.190422
 H     4.900551    -2.310489     0.561326
 C     5.609559    -1.550230    -1.319233
 F     6.498003    -2.533370    -1.463717
 H    -3.025322    -0.361177     1.508698
 H    -1.959182     0.975120     1.037969
 C    -3.531120     0.558382    -0.404060
 H    -2.999146     0.937909    -1.291749
 H    -4.115082    -0.310105    -0.751466
 C    -4.473732     1.636718     0.110353
 H    -3.876668     2.480348     0.501020
 H    -5.044001     1.247529     0.972860
 C    -5.436840     2.152557    -0.948921
 H    -4.856926     2.506771    -1.820055
 H    -6.048615     1.312904    -1.322924
 C    -6.340751     3.267136    -0.448176
 H    -7.029105     3.615644    -1.232694
 H    -5.751960     4.136218    -0.112155
 H    -6.951133     2.933934     0.406461
 C    -3.191810    -2.878841     0.354318
 C    -4.358755    -3.121616    -0.373239
 H    -4.364660    -2.904137    -1.442866
 C    -3.145030    -3.165341     1.721063
 H    -2.228097    -2.982078     2.281043
 C    -5.483089    -3.641989     0.259843
 H    -6.404572    -3.842429    -0.289600
 C    -4.271964    -3.680650     2.358015
 H    -4.261256    -3.912673     3.424475
 C    -5.427390    -3.911539     1.622477
 F    -6.503362    -4.405368     2.233964
 C     0.551605    -2.013315     1.764708
 C     1.414493    -1.482572     2.722917
 H     1.133617    -0.562819     3.237160
 C     0.885020    -3.186617     1.084668
 H     0.197853    -3.593637     0.340648
 C     2.626205    -2.112989     2.991598
 H     3.325299    -1.712042     3.727523
 C     2.101580    -3.812392     1.341955
 H     2.397484    -4.717515     0.809139
 C     2.958138    -3.263660     2.286883
 F     4.143205    -3.841832     2.506200
