  76
scf done:    -1990.851287
 C     2.429177    -1.967576     1.728738
 H     3.488920    -2.132190     1.507028
 H     2.262035    -1.441626     2.673671
 C     1.467758    -2.950223     1.299917
 H     1.824868    -3.836864     0.765336
 H     0.597590    -3.147415     1.933189
 H     0.228220    -0.729909     1.277823
Ir     1.273572    -1.162965     0.098663
 C     3.698294     1.393212     0.198166
 O     1.580163     1.723233    -1.464072
 O     1.377774     2.108085     1.075814
 C    -0.365348    -0.618609    -2.990263
 O    -1.526308    -2.389078    -1.469346
 O    -1.667577     0.060563    -0.707617
 P    -0.580644    -1.059342    -1.244280
 P     1.935525     1.020428    -0.014311
 C     2.469327    -1.807854    -1.265566
 O     3.165911    -2.202638    -2.088485
 H     4.021240     0.987382     1.166642
 H     4.261786     0.892084    -0.601724
 H     3.886828     2.476201     0.174636
 C     1.787639     3.102655    -1.728307
 H     1.752812     3.674797    -0.784630
 H     2.786493     3.242019    -2.177500
 C     0.705934     3.578409    -2.674039
 H     0.929733     4.618715    -2.968179
 H     0.762516     2.977194    -3.598769
 C    -0.694143     3.484962    -2.083736
 H    -0.763518     4.155767    -1.208908
 H    -0.844278     2.466336    -1.690723
 C    -1.786410     3.825322    -3.083606
 H    -1.662673     4.842561    -3.488995
 H    -1.774299     3.128975    -3.938019
 H    -2.786412     3.771653    -2.626974
 C     0.019376     2.089501     1.509054
 H    -0.395152     3.090225     1.296781
 H    -0.554281     1.352141     0.926077
 C    -0.061306     1.776390     2.985908
 H    -1.129050     1.754052     3.269007
 H     0.321464     0.752712     3.141021
 C     0.695843     2.757883     3.868137
 H     0.282386     3.772059     3.721498
 H     1.741044     2.805964     3.520830
 C     0.653337     2.392185     5.342518
 H    -0.381966     2.360934     5.719440
 H     1.094823     1.397901     5.517967
 H     1.209176     3.115863     5.957974
 H     0.116031     0.368801    -3.030230
 H     0.305958    -1.360223    -3.445697
 H    -1.319217    -0.617545    -3.535819
 C    -1.521085    -3.452701    -0.522875
 H    -1.945910    -4.319401    -1.053723
 H    -0.478316    -3.683685    -0.252179
 C    -2.319418    -3.137370     0.725436
 H    -2.152004    -3.955006     1.448839
 H    -1.892725    -2.230580     1.189481
 C    -3.811444    -2.957182     0.489303
 H    -4.232413    -3.896576     0.089145
 H    -3.961408    -2.205066    -0.302212
 C    -4.568163    -2.545667     1.741292
 H    -4.464498    -3.299400     2.538426
 H    -4.183454    -1.594141     2.143494
 H    -5.643151    -2.414246     1.544693
 C    -2.893927     0.290091    -1.389897
 H    -2.730818     1.036619    -2.188309
 H    -3.238103    -0.645294    -1.861308
 C    -3.930570     0.787893    -0.406823
 H    -4.897888     0.851009    -0.935964
 H    -4.056419     0.025031     0.379429
 C    -3.599591     2.128958     0.230727
 H    -3.524998     2.898417    -0.557576
 H    -2.598991     2.066166     0.684223
 C    -4.614764     2.556462     1.277202
 H    -5.625020     2.647559     0.846195
 H    -4.673551     1.821394     2.096245
 H    -4.354472     3.528861     1.722116
