  84
scf done:    -1847.173417
 C    -1.886845    -0.792631    -2.635239
 H    -1.896526    -1.833929    -2.974757
 H    -2.884184    -0.413799    -2.387085
 C    -0.928945     0.116663    -3.202955
 H    -0.226842    -0.252706    -3.958108
 H    -1.235618     1.153424    -3.368144
 H    -1.341098     0.976211    -0.843379
Ir    -0.393531    -0.328832    -1.156795
 C    -2.467234    -0.084493     1.704115
 C    -2.733630    -2.536682     0.223134
 C    -0.486125    -2.163351     2.074876
 C     2.743804     0.029079     0.341765
 C     2.165219     2.214805    -1.519783
 C     0.754826     2.058539     1.162892
 P     1.331697     1.048069    -0.307253
 P    -1.442001    -1.275629     0.727496
 C     0.754265    -1.767378    -1.644364
 O     1.473692    -2.609519    -1.967061
 H    -2.832071    -0.573530     2.623589
 H    -1.775795     0.711212     2.023560
 C    -3.618406     0.539645     0.928545
 H    -3.250468     0.849737    -0.064100
 H    -4.404896    -0.212460     0.745543
 C    -4.227396     1.739515     1.640351
 H    -3.441012     2.500501     1.798096
 H    -4.564841     1.443207     2.650846
 C    -5.388661     2.367255     0.882589
 H    -5.045473     2.651513    -0.127740
 H    -6.172831     1.605209     0.726527
 C    -5.983473     3.578271     1.582616
 H    -6.819242     4.009549     1.011035
 H    -5.229744     4.370740     1.718126
 H    -6.365220     3.314986     2.582397
 H    -3.326715    -1.947433    -0.497006
 C    -2.143906    -3.720206    -0.534902
 H    -2.944219    -4.274533    -1.050457
 H    -1.414964    -3.397106    -1.290676
 H    -1.648026    -4.429061     0.146069
 C    -3.654166    -3.009048     1.342311
 H    -4.165681    -2.181740     1.854401
 H    -4.433682    -3.670586     0.930723
 H    -3.110400    -3.593004     2.102014
 H    -1.223837    -2.818006     2.571141
 C     0.623076    -3.027663     1.486939
 H     1.105789    -3.619461     2.281481
 H     0.262070    -3.724587     0.720113
 H     1.393888    -2.402485     1.015297
 C     0.077702    -1.213608     3.125903
 H    -0.703053    -0.656052     3.661426
 H     0.651070    -1.782469     3.875480
 H     0.766887    -0.482354     2.677220
 H     2.367891    -0.401294     1.284543
 H     2.797781    -0.822003    -0.355238
 C     4.151482     0.575394     0.540739
 H     4.549502     0.941723    -0.420143
 H     4.151197     1.439994     1.222469
 C     5.095452    -0.486686     1.091092
 H     5.093379    -1.362016     0.416426
 H     4.704824    -0.856134     2.057201
 C     6.523460     0.006174     1.278884
 H     6.908322     0.374118     0.311231
 H     6.517870     0.883832     1.949633
 C     7.460790    -1.054936     1.832166
 H     8.484096    -0.669459     1.956150
 H     7.513187    -1.928995     1.163294
 H     7.119654    -1.415481     2.816043
 H     2.838072     1.516880    -2.053067
 C     1.185406     2.771595    -2.544904
 H     1.731253     3.344541    -3.311871
 H     0.626710     1.965335    -3.031426
 H     0.454347     3.450250    -2.079877
 C     3.007372     3.342862    -0.928118
 H     3.744557     3.004229    -0.191354
 H     3.557828     3.850795    -1.736864
 H     2.373291     4.103512    -0.449467
 H     0.137884     1.301409     1.673103
 C     1.805041     2.525993     2.163738
 H     1.303289     2.996282     3.025646
 H     2.405231     1.692283     2.555650
 H     2.491814     3.271787     1.740904
 C    -0.184951     3.185783     0.749279
 H    -0.944535     2.829431     0.038476
 H    -0.705579     3.584650     1.635244
 H     0.356857     4.023615     0.285703
