 100
scf done:    -2156.638684
 C    -0.630825    -2.413191    -2.041978
 H    -1.281352    -3.210039    -1.664753
 H    -0.990686    -1.978798    -2.981007
 C     0.788126    -2.522690    -1.827831
 H     1.168738    -3.396259    -1.287262
 H     1.470549    -2.168414    -2.606980
 H     0.242157    -0.059597    -1.922002
Ir    -0.012079    -0.953476    -0.584961
 C    -2.075845     1.307455    -2.162607
 C    -3.550926    -0.728377    -0.616420
 C    -2.234185     1.603858     0.798380
 C     1.335879     1.197952     1.910461
 C     3.150331    -0.959754     0.959192
 C     2.628796     1.491926    -0.740160
 P     1.822160     0.219185     0.374864
 P    -2.009223     0.336968    -0.555786
 C    -0.239488    -2.090696     0.927272
 O    -0.333510    -2.814505     1.822455
 H    -1.656351     0.555076    -2.850896
 C    -3.425773     1.736991    -2.725683
 H    -3.268969     2.208064    -3.710114
 H    -4.102739     0.885577    -2.881794
 H    -3.942682     2.473790    -2.094278
 C    -1.088720     2.470072    -2.112226
 H    -0.115259     2.141872    -1.721528
 H    -0.926510     2.875574    -3.123642
 H    -1.455137     3.296348    -1.483830
 H    -3.549197    -1.046608    -1.677684
 C    -4.892575    -0.049610    -0.320627
 H    -5.014074     0.878784    -0.892186
 H    -4.919363     0.233153     0.745280
 C    -6.063517    -0.988576    -0.600473
 H    -7.014506    -0.475408    -0.382345
 H    -6.081932    -1.232192    -1.678544
 C    -5.950520    -2.274231     0.207765
 H    -6.778007    -2.960166    -0.036286
 H    -6.052011    -2.033932     1.281861
 C    -4.605481    -2.948614    -0.029358
 H    -4.556175    -3.302499    -1.075396
 H    -4.503870    -3.844356     0.604507
 C    -3.435360    -2.003546     0.223112
 H    -3.395756    -1.739823     1.294480
 H    -2.490446    -2.508503    -0.007616
 H    -1.252469     2.112222     0.754193
 C    -2.322732     0.917840     2.163377
 H    -1.550468     0.137724     2.239500
 H    -3.294246     0.400462     2.247075
 C    -2.197034     1.922607     3.303266
 H    -2.291904     1.408476     4.273452
 H    -1.184722     2.365359     3.283761
 C    -3.228246     3.038160     3.181594
 H    -3.094389     3.777797     3.987600
 H    -4.239983     2.613561     3.314454
 C    -3.146216     3.713692     1.817988
 H    -2.171825     4.227572     1.724596
 H    -3.918090     4.495379     1.727621
 C    -3.291699     2.705792     0.679103
 H    -4.301972     2.272683     0.714168
 H    -3.206840     3.225525    -0.285331
 H     0.356083     1.576767     1.581465
 C     1.080081     0.265141     3.091486
 H     0.522609     0.799018     3.876934
 H     0.492223    -0.617774     2.811250
 H     2.016446    -0.090078     3.545079
 C     2.150154     2.412991     2.341376
 H     2.253367     3.157239     1.539353
 H     1.632361     2.910118     3.178898
 H     3.156743     2.149055     2.697060
 H     2.537000    -1.688975     1.521992
 C     4.252074    -0.473983     1.907074
 H     3.835873     0.084434     2.756509
 H     4.925796     0.217779     1.379801
 C     5.067886    -1.659018     2.421649
 H     5.859982    -1.303448     3.100984
 H     4.411888    -2.313573     3.023877
 C     5.671226    -2.464783     1.276747
 H     6.220141    -3.337181     1.667293
 H     6.416122    -1.839324     0.751436
 C     4.601921    -2.904526     0.283337
 H     3.927332    -3.633155     0.768092
 H     5.061366    -3.428452    -0.570681
 C     3.774741    -1.723150    -0.211701
 H     4.427921    -1.039730    -0.782892
 H     2.986007    -2.058228    -0.897849
 H     1.916284     2.337702    -0.660426
 C     2.686904     1.094070    -2.218956
 H     1.716287     0.694002    -2.540141
 H     3.411739     0.271341    -2.344247
 C     3.097975     2.276305    -3.090182
 H     3.137842     1.965760    -4.146965
 H     2.315139     3.054568    -3.026492
 C     4.434013     2.867992    -2.658370
 H     4.677598     3.760404    -3.257761
 H     5.234618     2.132384    -2.856362
 C     4.429809     3.204535    -1.172840
 H     3.726868     4.036954    -0.984927
 H     5.423294     3.560926    -0.854725
 C     4.015226     2.002499    -0.327362
 H     4.747419     1.192841    -0.484433
 H     4.062231     2.260821     0.736532
