  64
scf done:    -1985.049978
 C    -0.459078    -3.206140    -1.220674
 H    -1.218040    -3.829994    -0.735179
 H    -0.625557    -3.088850    -2.295819
 C     0.890155    -3.260892    -0.721262
 H     1.102408    -3.918477     0.129231
 H     1.725821    -3.178905    -1.422869
 H     0.605673    -0.932825    -1.700589
Ir     0.024440    -1.358946    -0.221677
 C    -1.803834     0.648201    -2.453011
 C    -3.405450    -0.388847    -0.347546
 C    -1.660569     1.762404     0.200577
 C     1.688176     0.427676     2.352159
 C     3.420770    -0.479574     0.317559
 C     1.723402     1.752155    -0.208577
 P     1.687102     0.084822     0.551010
 P    -1.684597     0.161378    -0.693757
 C    -0.604635    -1.898568     1.500048
 O    -0.963810    -2.198690     2.551752
 H    -0.867591     1.135210    -2.758697
 H    -1.917198    -0.277834    -3.032867
 H    -2.661549     1.309638    -2.643168
 C    -3.676907    -1.750299    -0.189502
 C    -4.458498     0.533084    -0.273907
 C    -6.024981    -1.266073     0.105118
 C    -5.760788     0.095739    -0.048671
 C    -4.982352    -2.187174     0.033672
 H    -2.848527    -2.460122    -0.243250
 H    -5.182793    -3.254044     0.157971
 H    -7.047079    -1.607644     0.286309
 H    -6.574736     0.822312     0.012866
 H    -4.255824     1.602494    -0.379091
 C    -1.718668     1.718734     1.601310
 C    -1.561883     3.002863    -0.434223
 C    -1.585549     4.127601     1.706065
 C    -1.522577     4.178445     0.316743
 C    -1.685371     2.891311     2.348418
 H    -1.797443     0.751570     2.106713
 H    -1.739740     2.842226     3.438846
 H    -1.555983     5.049445     2.291847
 H    -1.434597     5.140296    -0.193785
 H    -1.498312     3.065115    -1.521704
 H     1.745632    -0.541130     2.867555
 H     2.545347     1.045015     2.656698
 H     0.744950     0.917690     2.632562
 C     3.709767    -1.828413     0.555523
 C     4.459495     0.389920    -0.034451
 C     6.047092    -1.428612     0.097544
 C     5.765067    -0.086064    -0.148524
 C     5.016693    -2.298371     0.454105
 H     2.892241    -2.508794     0.804810
 H     5.229530    -3.353400     0.642908
 H     7.070974    -1.799283     0.006166
 H     6.567590     0.599460    -0.431960
 H     4.248534     1.444414    -0.226538
 C     1.706026     1.838974    -1.608139
 C     1.770264     2.931006     0.540938
 C     1.790519     4.249925    -1.484871
 C     1.800624     4.172203    -0.095044
 C     1.744245     3.077412    -2.241281
 H     1.659259     0.918336    -2.195979
 H     1.737790     3.128860    -3.332977
 H     1.816407     5.223107    -1.981110
 H     1.826183     5.084415     0.505683
 H     1.770740     2.895296     1.631157
