  94
scf done:    -2078.091260
 C     1.137047    -3.020534     0.627186
 H     1.927460    -3.398198    -0.030730
 H     1.435894    -2.989612     1.680409
 C    -0.233450    -3.317999     0.309802
 H    -0.456219    -3.909329    -0.584778
 H    -0.926680    -3.504960     1.134938
 H    -0.299673    -1.076152     1.517783
Ir     0.166063    -1.224387    -0.051706
 C     1.655433     1.054818     2.219600
 C     3.501659    -0.506931     0.674952
 C     2.209726     1.850307    -0.502980
 C    -1.645735     0.972900    -2.090887
 C    -3.392118    -0.867085    -0.648706
 C    -2.003115     1.387471     0.818246
 P    -1.775559     0.059024    -0.474888
 P     1.839604     0.330203     0.524159
 C     0.598554    -1.497639    -1.885377
 O     0.819057    -1.679361    -3.003202
 H     0.673260     1.551169     2.225032
 C     1.717449     0.037977     3.347323
 H     2.721411    -0.399488     3.455272
 H     1.007617    -0.782893     3.165568
 H     2.410048     1.847074     2.358310
 H     1.458494     0.509112     4.307962
 H     3.259194    -1.325725     1.377123
 C     4.629918     0.324498     1.287888
 H     4.311942     0.799776     2.228388
 H     4.901805     1.144410     0.599130
 C     5.864192    -0.538861     1.544987
 H     6.676538     0.079162     1.961395
 H     5.618025    -1.289343     2.317854
 C     6.331387    -1.253729     0.282423
 H     7.188209    -1.909279     0.507876
 H     6.697335    -0.503565    -0.442364
 C     5.199161    -2.049741    -0.356811
 H     4.906320    -2.878889     0.312222
 H     5.538006    -2.513994    -1.297139
 C     3.982070    -1.168473    -0.617137
 H     4.263366    -0.389462    -1.346878
 H     3.166483    -1.750843    -1.069114
 H     3.240410     2.149000    -0.235223
 C     1.289571     3.032866    -0.188082
 H     1.347226     3.304425     0.876361
 H     0.243968     2.735804    -0.376404
 C     1.620420     4.252846    -1.042992
 H     0.921856     5.072852    -0.808472
 H     2.628406     4.617946    -0.774748
 C     1.585657     3.927142    -2.530718
 H     1.863443     4.812105    -3.125832
 H     0.550690     3.670354    -2.822469
 C     2.501122     2.752858    -2.852802
 H     3.550514     3.049555    -2.672877
 H     2.432190     2.490340    -3.920793
 C     2.165482     1.534407    -1.999519
 H     1.153558     1.178460    -2.248624
 H     2.838728     0.701920    -2.246057
 H    -1.109944     0.266454    -2.743107
 C    -2.856730     1.508403    -2.840235
 H    -3.419715     2.260586    -2.271177
 H    -3.553230     0.704371    -3.119107
 H    -0.924117     1.781309    -1.895106
 H    -2.526632     1.985192    -3.776960
 H    -3.310705    -1.251972    -1.685236
 C    -4.685969    -0.052060    -0.545385
 H    -4.662906     0.833398    -1.192391
 H    -4.793768     0.320143     0.487049
 C    -5.904061    -0.908551    -0.884339
 H    -6.822478    -0.305264    -0.794999
 H    -5.840668    -1.222488    -1.942368
 C    -5.985980    -2.143295     0.004386
 H    -6.846348    -2.769499    -0.282989
 H    -6.167802    -1.824494     1.047049
 C    -4.691941    -2.946032    -0.054225
 H    -4.572853    -3.369311    -1.068425
 H    -4.738659    -3.805329     0.634382
 C    -3.473561    -2.088080     0.268491
 H    -3.524385    -1.754497     1.319752
 H    -2.547711    -2.667858     0.176510
 H    -0.952267     1.693208     0.959558
 C    -2.467720     0.827327     2.164519
 H    -1.870883    -0.062158     2.418202
 H    -3.517300     0.496562     2.088961
 C    -2.358771     1.879621     3.263160
 H    -2.727629     1.468518     4.216770
 H    -1.292963     2.124451     3.425007
 C    -3.116755     3.150529     2.898954
 H    -2.996280     3.912758     3.685871
 H    -4.197665     2.924918     2.848489
 C    -2.658911     3.699069     1.552792
 H    -1.604125     4.021056     1.631492
 H    -3.237574     4.597932     1.284245
 C    -2.774805     2.653878     0.444623
 H    -3.837962     2.420360     0.274057
 H    -2.388581     3.076743    -0.495515
