 104
scf done:    -2757.088282
 C    -0.822710    -3.197519    -1.477294
 H    -1.475796    -3.753294    -0.795355
 H    -1.270733    -3.032215    -2.461687
 C     0.602760    -3.339197    -1.363437
 H     1.013276    -4.003144    -0.595058
 H     1.217023    -3.306214    -2.267874
 H     0.146354    -0.901732    -2.193129
Ir    -0.002721    -1.404651    -0.622576
 C    -1.796683     1.340871    -1.889137
 C    -3.358363    -0.961536    -1.091860
 C    -2.330955     0.841379     0.951544
 C     1.777655     1.657905    -0.869483
 C     2.314170     0.129620     1.520899
 C     3.430176    -0.641648    -1.097450
 P     1.894896    -0.076982    -0.250269
 P    -1.871579    -0.002043    -0.621473
 C    -0.169099    -2.040572     1.162267
 O    -0.256330    -2.441812     2.239174
 H    -0.806731     1.796927    -1.743677
 H    -1.711562     0.792752    -2.840417
 C    -2.882166     2.413585    -1.923355
 H    -2.977633     2.794151    -2.955533
 H    -3.856850     1.970542    -1.668928
 C    -2.593367     3.584649    -0.989715
 H    -1.723735     4.150142    -1.373161
 H    -2.285830     3.203117    -0.002615
 C    -3.773348     4.525849    -0.803714
 H    -4.079751     4.935662    -1.782883
 H    -4.636465     3.938998    -0.442415
 C    -3.486994     5.658519     0.168419
 H    -4.355872     6.323136     0.291782
 H    -2.641929     6.276745    -0.175443
 H    -3.221948     5.263635     1.162674
 C    -3.949549    -0.881640    -2.350335
 H    -3.575316    -0.161293    -3.079437
 C    -3.858058    -1.910451    -0.175185
 O    -3.241532    -1.943793     1.020701
 C    -3.607496    -2.899860     1.973395
 H    -4.645982    -2.753784     2.319697
 H    -2.920103    -2.770524     2.818133
 H    -3.501287    -3.925968     1.580151
 C    -5.018687    -1.707761    -2.705783
 H    -5.463677    -1.625772    -3.699609
 C    -4.928062    -2.736882    -0.521552
 H    -5.314529    -3.467538     0.189548
 C    -5.506370    -2.629855    -1.788086
 H    -6.342255    -3.282245    -2.051974
 C    -1.308940     1.059315     1.874181
 H    -0.311785     0.685942     1.635577
 C    -3.632973     1.275381     1.284859
 O    -4.605571     1.055161     0.379900
 C    -5.942282     1.292482     0.713722
 H    -6.239233     0.736158     1.619579
 H    -6.539221     0.936672    -0.135681
 H    -6.144711     2.366930     0.870804
 C    -1.531167     1.713763     3.085392
 H    -0.701730     1.863891     3.779236
 C    -3.867357     1.917612     2.504690
 H    -4.871241     2.255195     2.763418
 C    -2.816268     2.141656     3.395063
 H    -3.018262     2.649098     4.341731
 H     1.396176     1.540577    -1.897105
 H     0.957948     2.131420    -0.301806
 C     3.031444     2.518865    -0.864585
 H     3.492046     2.519228     0.136316
 H     3.780838     2.063717    -1.533410
 C     2.758602     3.950034    -1.306464
 H     2.008643     4.405952    -0.633412
 H     2.291489     3.942938    -2.308434
 C     4.005117     4.823301    -1.335576
 H     4.469875     4.819855    -0.333471
 H     4.749881     4.364743    -2.009978
 C     3.732541     6.254428    -1.769354
 H     4.651760     6.859723    -1.780248
 H     3.017383     6.747865    -1.091393
 H     3.299861     6.288756    -2.782265
 C     2.116387     1.320830     2.217755
 H     1.796394     2.216451     1.682946
 C     2.721477    -1.010401     2.243891
 O     2.915747    -2.117746     1.508059
 C     3.117439    -3.349776     2.140498
 H     4.067420    -3.370773     2.703175
 H     3.159395    -4.102235     1.343203
 H     2.283437    -3.589704     2.821701
 C     2.305580     1.393926     3.599939
 H     2.145043     2.339589     4.122190
 C     2.902847    -0.947875     3.626456
 H     3.204759    -1.834720     4.184149
 C     2.696045     0.257453     4.298963
 H     2.840931     0.298364     5.381187
 C     3.268208    -1.289823    -2.322060
 H     2.248016    -1.456856    -2.675100
 C     4.740713    -0.425024    -0.620887
 O     4.868309     0.246026     0.539331
 C     6.128325     0.419079     1.116423
 H     6.623766    -0.547399     1.315586
 H     5.961707     0.936568     2.069978
 H     6.791364     1.035158     0.483202
 C     4.360057    -1.727782    -3.071086
 H     4.201790    -2.230005    -4.027547
 C     5.838520    -0.886539    -1.355522
 H     6.852258    -0.733266    -0.984694
 C     5.644011    -1.532819    -2.575801
 H     6.513053    -1.882352    -3.138926
