  84
scf done:    -1847.200240
 C     0.426853    -2.884767    -2.208923
 H    -0.100855    -3.821640    -2.000234
 H     0.262292    -2.515229    -3.226306
 C     1.706243    -2.655100    -1.587173
 H     2.119957    -3.420794    -0.922253
 H     2.472743    -2.120701    -2.156996
 H     0.635194    -0.321107    -1.898147
Ir     0.215192    -1.374387    -0.694576
 C    -2.508845    -0.862342    -2.790852
 C    -3.281088    -1.133933    -0.056865
 C    -2.076487     1.331388    -0.973309
 C     0.433706     0.449893     2.362529
 C     2.948585    -0.319314     1.293792
 C     1.489543     1.841620     0.057572
 P     1.250009     0.148296     0.744067
 P    -1.900961    -0.500237    -1.102078
 C    -0.260581    -2.588144     0.693245
 O    -0.569797    -3.289560     1.555337
 H    -1.799742    -0.438270    -3.516029
 H    -2.513599    -1.953180    -2.925692
 H    -3.518043    -0.465486    -2.978058
 H    -3.245454    -2.231615    -0.164552
 H    -4.244501    -0.799450    -0.475729
 C    -3.135245    -0.746108     1.407542
 H    -2.082215    -0.879650     1.702154
 H    -3.351993     0.331433     1.532358
 C    -4.010867    -1.541607     2.376897
 H    -3.760997    -2.609535     2.234101
 C    -3.669735    -1.173455     3.815794
 H    -2.603809    -1.348270     4.029843
 H    -4.258694    -1.765020     4.533632
 H    -3.881051    -0.108250     4.010244
 C    -5.498218    -1.358923     2.098788
 H    -6.109913    -1.936188     2.809312
 H    -5.772599    -1.687746     1.085035
 H    -5.786949    -0.298349     2.197162
 H    -1.339306     1.740858    -1.685270
 H    -1.695093     1.581416     0.028994
 C    -3.449762     1.943549    -1.197225
 H    -3.848782     1.619217    -2.172940
 H    -4.157953     1.564276    -0.438331
 C    -3.469111     3.475606    -1.154789
 H    -2.779382     3.835534    -1.941663
 C    -4.864307     3.996143    -1.480188
 H    -5.214927     3.627016    -2.456647
 H    -4.887440     5.096480    -1.508153
 H    -5.592068     3.667606    -0.719327
 C    -2.981125     4.026759     0.181033
 H    -3.045024     5.125560     0.201978
 H    -1.934196     3.756631     0.386862
 H    -3.596823     3.642393     1.012171
 H     0.275749    -0.520045     2.856825
 H     1.029881     1.094526     3.025617
 H    -0.551892     0.908939     2.198909
 H     2.845666    -1.328785     1.727173
 H     3.269788     0.353254     2.106763
 C     3.948094    -0.341849     0.146720
 H     3.472660    -0.840556    -0.712959
 H     4.168214     0.692070    -0.177744
 C     5.269202    -1.046393     0.460607
 H     5.021909    -2.078387     0.773736
 C     6.130516    -1.133498    -0.793723
 H     5.599056    -1.648640    -1.608837
 H     7.067720    -1.679027    -0.602577
 H     6.399644    -0.126564    -1.154997
 C     6.028509    -0.377402     1.600924
 H     6.980045    -0.893327     1.803204
 H     5.450433    -0.373420     2.537430
 H     6.266064     0.670536     1.349235
 H     0.485446     2.199610    -0.220844
 H     2.015734     1.679259    -0.895730
 C     2.201514     2.862452     0.930741
 H     1.673766     2.957833     1.894774
 H     3.219243     2.508501     1.175534
 C     2.310781     4.257369     0.305595
 H     1.284118     4.587416     0.055356
 C     2.887932     5.245763     1.312328
 H     2.283249     5.285578     2.231930
 H     2.934960     6.263767     0.895642
 H     3.912831     4.957228     1.600046
 C     3.129054     4.252526    -0.980899
 H     3.207758     5.265801    -1.404083
 H     2.687056     3.606521    -1.753807
 H     4.154036     3.891939    -0.789291
