  82
scf done:    -2220.734543
 C     0.904432    -2.476452    -1.635238
 H     1.495537    -2.138975    -2.493212
 H     1.432502    -3.198579    -1.005675
 C    -0.523278    -2.547006    -1.749802
 H    -0.992574    -2.262352    -2.697964
 H    -1.066976    -3.338360    -1.225583
 H     0.016123    -1.988276     0.737646
Ir     0.030756    -0.878770    -0.486500
 C     1.828467    -0.421108     2.500235
 C     3.392380    -1.075038     0.111354
 C     2.372718     1.671144     0.600716
 C    -1.661393     0.457311     2.323208
 C    -2.490508     1.522215    -0.288236
 C    -3.353947    -1.138222     0.676509
 P    -1.900926     0.001224     0.544981
 P     1.929590    -0.122664     0.674607
 C     0.020724     0.369848    -1.927326
 O    -0.009380     1.119860    -2.798740
 H     1.571916    -1.487037     2.605394
 C     2.962466    -0.008600     3.420968
 H     3.180992     1.065645     3.332286
 H     3.890641    -0.563234     3.221549
 H     0.911547     0.118097     2.774697
 H     2.683129    -0.202988     4.468422
 C     3.830792    -2.157395     0.885433
 H     3.347180    -2.375879     1.838629
 C     3.993759    -0.838945    -1.146431
 C     3.537899     0.251747    -2.067445
 H     3.717620     1.255780    -1.654369
 H     2.455971     0.180712    -2.247180
 H     4.051919     0.184846    -3.035682
 C     4.870847    -2.980500     0.462536
 H     5.192286    -3.816079     1.088609
 C     5.042138    -1.674543    -1.547058
 H     5.512247    -1.490275    -2.517051
 C     5.489393    -2.730874    -0.758194
 H     6.309169    -3.364239    -1.105050
 C     1.283526     2.514236     0.337623
 H     0.313585     2.057918     0.130471
 C     3.646327     2.244948     0.830302
 C     4.912528     1.465451     1.049448
 H     5.375245     1.192756     0.087032
 H     4.758172     0.527629     1.590013
 H     5.641641     2.072204     1.605016
 C     1.409883     3.898424     0.311918
 H     0.536322     4.517800     0.095957
 C     3.750107     3.643447     0.796386
 H     4.730935     4.094219     0.972100
 C     2.657657     4.467641     0.545261
 H     2.786917     5.552562     0.526042
 H    -0.853584     1.207245     2.335238
 C    -2.841606     0.889961     3.174755
 H    -3.640165     0.133913     3.163225
 H    -3.272366     1.844756     2.840324
 H    -1.216416    -0.464080     2.731686
 H    -2.523948     1.022138     4.220794
 C    -2.271947     2.771818     0.307989
 H    -1.842299     2.831808     1.309275
 C    -3.028763     1.460964    -1.593830
 C    -3.291738     0.160983    -2.295095
 H    -4.238547    -0.292489    -1.959392
 H    -2.503405    -0.578585    -2.088806
 H    -3.356066     0.311704    -3.381357
 C    -2.587296     3.954946    -0.354250
 H    -2.411051     4.916172     0.134566
 C    -3.337038     2.663471    -2.239440
 H    -3.747850     2.620846    -3.251817
 C    -3.126766     3.899970    -1.636249
 H    -3.376508     4.818842    -2.171723
 C    -3.004151    -2.492952     0.766717
 H    -1.945402    -2.752018     0.697117
 C    -4.718966    -0.770810     0.761429
 C    -5.243934     0.636508     0.688330
 H    -5.303035     0.994720    -0.351137
 H    -4.618191     1.356862     1.224491
 H    -6.257496     0.680734     1.110913
 C    -3.959848    -3.490010     0.928645
 H    -3.651508    -4.535668     0.998000
 C    -5.664098    -1.797240     0.907575
 H    -6.720983    -1.522592     0.966801
 C    -5.304238    -3.138129     0.989633
 H    -6.075524    -3.903445     1.106064
