  74
scf done:    -2364.396769
 C     0.016541     2.293128    -2.852554
 H    -0.125918     1.933944    -3.877193
 H    -0.762898     2.991903    -2.532063
 C     1.353260     2.467953    -2.353203
 H     2.202485     2.232706    -3.001888
 H     1.558624     3.277733    -1.648196
 H    -0.072141     1.855589    -0.331592
Ir     0.462633     0.751319    -1.398812
 C    -2.701287    -0.794614    -2.084222
 O    -1.045954    -1.918561    -0.230933
 O    -2.357825     0.087900     0.408639
 C     2.067437    -1.626625     0.758503
 O     3.442064     0.583648    -0.029725
 O     1.700581     0.821599     1.768689
 P     1.887151     0.123265     0.264813
 P    -1.403768    -0.418975    -0.851150
 C     1.142065    -0.435730    -2.766882
 O     1.555947    -1.098067    -3.606257
 H    -3.249686     0.150577    -2.230399
 C    -2.144943    -1.306452    -3.401698
 H    -1.537166    -2.214075    -3.265264
 H    -1.504924    -0.549012    -3.877733
 H    -3.406111    -1.504799    -1.620654
 H    -2.959300    -1.550484    -4.099532
 C    -1.967934    -2.819604     0.241505
 C    -2.311922    -3.915882    -0.548920
 H    -1.866533    -4.017549    -1.540486
 C    -2.503942    -2.669040     1.521580
 H    -2.212481    -1.802501     2.115566
 C    -3.206390    -4.864668    -0.056593
 H    -3.474548    -5.724449    -0.675105
 C    -3.397446    -3.623279     2.002039
 H    -3.818665    -3.507916     3.003811
 C    -3.753868    -4.720457     1.217400
 H    -4.454910    -5.465091     1.600628
 C    -3.208953     1.149175     0.440208
 C    -4.277498     1.064943     1.336230
 H    -4.389723     0.156362     1.929930
 C    -3.036224     2.290285    -0.345314
 H    -2.190618     2.350404    -1.032044
 C    -5.160133     2.132501     1.459566
 H    -5.992241     2.062765     2.164568
 C    -3.931754     3.351316    -0.214066
 H    -3.789658     4.244974    -0.826729
 C    -4.991360     3.283718     0.687906
 H    -5.686553     4.120134     0.786002
 H     1.103864    -1.880381     1.227872
 C     2.345617    -2.568051    -0.400720
 H     3.249875    -2.280542    -0.957432
 H     1.497479    -2.583643    -1.099139
 H     2.847745    -1.675822     1.535217
 H     2.492900    -3.594163    -0.032904
 C     4.554657     0.161875     0.652937
 C     5.544135    -0.504963    -0.070548
 H     5.387375    -0.680196    -1.136690
 C     4.724790     0.423526     2.013877
 H     3.942561     0.956366     2.554747
 C     6.706592    -0.920712     0.573533
 H     7.480830    -1.441057     0.004616
 C     5.890546    -0.003565     2.647600
 H     6.024448     0.199486     3.712931
 C     6.882713    -0.676060     1.935341
 H     7.794198    -1.004684     2.439294
 C     0.492729     1.012183     2.385507
 C    -0.051890    -0.000580     3.175206
 H     0.482321    -0.947044     3.276095
 C    -0.156122     2.241943     2.266557
 H     0.296940     3.019783     1.651300
 C    -1.255807     0.220066     3.842472
 H    -1.675932    -0.569928     4.470228
 C    -1.361315     2.449551     2.931076
 H    -1.880003     3.404580     2.821573
 C    -1.915664     1.441114     3.718570
 H    -2.863396     1.609971     4.233547
