  74
scf done:    -4202.282766
 C     0.504897     1.883192     3.543416
 H     1.185015     1.528860     4.324937
 H     0.646879     2.937397     3.288230
 C    -0.812615     1.319294     3.458350
 H    -1.111166     0.544349     4.171217
 H    -1.635387     1.965139     3.140297
 H    -0.178231     1.941182     1.059014
Ir     0.385125     0.600949     1.808495
 C     3.730955     1.743301     1.578547
 O     3.005026    -0.425279     0.081901
 O     2.345200     2.005308    -0.602886
 C    -0.126025    -1.769812    -0.806727
 O    -1.961770    -1.575045     1.235062
 O    -1.920719     0.132544    -0.715637
 P    -0.912840    -0.611029     0.366943
 P     2.330551     0.973285     0.704920
 C     0.971039    -0.975042     2.764213
 O     1.306444    -1.921683     3.315069
 H     3.342922     2.721789     1.904623
 C     4.201818     0.910620     2.760118
 H     4.620962    -0.052952     2.433687
 H     3.373250     0.704750     3.453912
 H     4.542677     1.936768     0.860512
 H     4.985804     1.442981     3.317622
 C     4.275195    -0.606575    -0.390358
 C     4.930687    -1.778862    -0.007143
 H     4.417765    -2.469622     0.664782
 C     4.902838     0.295069    -1.254342
 H     4.389627     1.208585    -1.556507
 C     6.208973    -2.052893    -0.479087
 H     6.727172    -2.966744    -0.184345
 C     6.186624     0.023681    -1.722613
 H     6.686440     0.721810    -2.395954
 C     6.835383    -1.146674    -1.335348
Cl     8.429665    -1.481375    -1.922362
 C     1.387944     1.934857    -1.580250
 C     1.448675     0.933811    -2.550448
 H     2.252718     0.196602    -2.518687
 C     0.379202     2.895417    -1.617802
 H     0.350318     3.666034    -0.846875
 C     0.488922     0.885766    -3.556991
 H     0.521186     0.107315    -4.320539
 C    -0.577055     2.855715    -2.626395
 H    -1.375195     3.597782    -2.662620
 C    -0.520626     1.844557    -3.584130
Cl    -1.739624     1.761014    -4.816814
 H     0.167511    -2.628969    -0.178553
 C    -0.891665    -2.201256    -2.047259
 H    -1.196004    -1.328243    -2.640100
 H    -1.796148    -2.774133    -1.803140
 H     0.819144    -1.273280    -1.072175
 H    -0.249815    -2.838076    -2.675152
 C    -2.739742    -2.563334     0.694457
 C    -2.347645    -3.891954     0.858590
 H    -1.432556    -4.109764     1.412827
 C    -3.921825    -2.255725     0.019492
 H    -4.232234    -1.214896    -0.082905
 C    -3.120448    -4.917673     0.323329
 H    -2.823317    -5.960766     0.442044
 C    -4.696230    -3.279239    -0.517930
 H    -5.620300    -3.052991    -1.052075
 C    -4.288837    -4.605097    -0.371118
Cl    -5.250334    -5.877672    -1.046624
 C    -2.877500     1.062432    -0.433316
 C    -3.303660     1.353971     0.863635
 H    -2.859214     0.838397     1.714924
 C    -3.475752     1.693424    -1.525918
 H    -3.153160     1.432403    -2.534610
 C    -4.300461     2.305748     1.065965
 H    -4.635657     2.543460     2.076767
 C    -4.473533     2.639716    -1.323552
 H    -4.943135     3.138030    -2.173199
 C    -4.877621     2.950774    -0.024943
Cl    -6.116949     4.135674     0.229637
