  88
scf done:    -1999.537467
 C    -0.868009    -2.998870    -0.777039
 H    -1.616378    -3.483606    -0.140132
 H    -1.145170    -2.997919    -1.836267
 C     0.525075    -3.121372    -0.425393
 H     0.793789    -3.691580     0.471099
 H     1.263411    -3.216653    -1.227420
 H     0.278755    -0.892851    -1.642140
Ir    -0.134744    -1.106739    -0.064695
 C    -1.617031     1.284548    -2.181139
 C    -3.454579    -0.507077    -0.938843
 C    -2.353035     1.780270     0.562795
 C     1.712688     0.944385     2.128271
 C     3.270013    -0.961683     0.616946
 C     2.200672     1.605690    -0.609502
 P     1.778689     0.148440     0.473225
 P    -1.858807     0.396323    -0.593371
 C    -0.573556    -1.477051     1.752638
 O    -0.804845    -1.741105     2.850998
 H    -0.652001     1.805979    -2.162214
 H    -1.575899     0.532421    -2.981757
 H    -2.416250     2.009186    -2.394778
 H    -3.114587    -1.237749    -1.697563
 C    -4.595920     0.311903    -1.543457
 H    -4.257636     0.872006    -2.428392
 H    -4.942943     1.061464    -0.809302
 C    -5.769818    -0.587042    -1.930295
 H    -6.594037     0.023466    -2.334321
 H    -5.449564    -1.256521    -2.748898
 C    -6.255312    -1.429475    -0.756441
 H    -7.066689    -2.102589    -1.077883
 H    -6.690648    -0.763523     0.011051
 C    -5.112331    -2.223440    -0.134314
 H    -4.746258    -2.973736    -0.858065
 H    -5.467194    -2.786314     0.744215
 C    -3.957371    -1.309951     0.260950
 H    -4.311594    -0.615111     1.042655
 H    -3.129064    -1.888304     0.695829
 H    -3.387461     2.056707     0.284925
 C    -1.474188     3.021932     0.392484
 H    -1.515711     3.393057    -0.642268
 H    -0.422607     2.740361     0.579397
 C    -1.874776     4.140888     1.349689
 H    -1.199872     5.002888     1.220133
 H    -2.886079     4.496686     1.081355
 C    -1.878122     3.675390     2.800153
 H    -2.210654     4.488863     3.465099
 H    -0.844713     3.428552     3.105556
 C    -2.756500     2.443215     2.974624
 H    -3.810363     2.715592     2.782809
 H    -2.713905     2.081874     4.014711
 C    -2.338972     1.327203     2.023413
 H    -1.316583     0.999359     2.272081
 H    -2.976191     0.443627     2.169357
 H     1.519461     0.167769     2.882315
 H     2.631213     1.484390     2.396789
 H     0.866439     1.645113     2.143701
 H     2.811566    -1.838761     1.111280
 C     4.447464    -0.510938     1.483530
 H     4.104790    -0.205920     2.483953
 H     4.934674     0.370850     1.034787
 C     5.470602    -1.638030     1.619940
 H     6.328171    -1.297132     2.222912
 H     5.009071    -2.471232     2.180063
 C     5.942994    -2.149718     0.263475
 H     6.645347    -2.988903     0.394600
 H     6.508746    -1.349131    -0.247606
 C     4.767927    -2.565344    -0.614823
 H     4.264751    -3.442417    -0.169773
 H     5.122963    -2.881678    -1.609147
 C     3.758339    -1.431728    -0.753732
 H     4.244794    -0.587638    -1.273299
 H     2.900623    -1.736926    -1.372148
 H     1.339108     2.266169    -0.389060
 C     2.155200     1.318450    -2.111072
 H     1.256986     0.733081    -2.353038
 H     3.013100     0.686631    -2.392935
 C     2.210549     2.615369    -2.911179
 H     2.186856     2.395077    -3.990799
 H     1.305249     3.213956    -2.697585
 C     3.448197     3.434442    -2.561552
 H     3.450572     4.389600    -3.111462
 H     4.347517     2.883836    -2.892469
 C     3.543658     3.684924    -1.060942
 H     2.712134     4.341882    -0.746698
 H     4.473448     4.225310    -0.818908
 C     3.472567     2.383303    -0.264655
 H     4.352525     1.763605    -0.508383
 H     3.531259     2.601922     0.812551
