  60
scf done:    -1532.942388
 C    -1.772818    -2.473249    -1.037549
 H    -1.804433    -3.404689    -0.462043
 H    -2.766199    -2.061287    -1.242431
 C    -0.729471    -2.297468    -2.017711
 H     0.001918    -3.100550    -2.158193
 H    -0.958304    -1.758066    -2.942359
 H    -1.285699     0.057768    -1.178557
Ir    -0.356506    -1.013036    -0.334454
 C    -2.440316     1.322829     1.361506
 C    -2.240477    -1.252578     2.616536
 C    -0.118632     0.611242     2.846350
 C     2.914250     0.325944    -0.033525
 C     1.809108     0.355185    -2.704050
 C     0.909566     2.258555    -0.794281
 P     1.315996     0.474979    -0.943257
 P    -1.270589    -0.080374     1.592657
 C     0.749827    -2.256275     0.596550
 O     1.442253    -2.977694     1.169823
 H    -2.731772     1.707234     2.355458
 H    -1.860395     2.118104     0.862734
 C    -3.666762     0.975900     0.531141
 H    -3.335253     0.490294    -0.402355
 H    -4.279046     0.228205     1.064954
 C    -4.529289     2.186548     0.203105
 H    -3.918962     2.928668    -0.343736
 H    -4.840552     2.687090     1.138636
 C    -5.762710     1.844327    -0.620973
 H    -5.445156     1.338786    -1.549866
 H    -6.369330     1.102478    -0.071792
 C    -6.618078     3.053990    -0.960979
 H    -7.500809     2.774212    -1.555734
 H    -6.047331     3.795960    -1.542544
 H    -6.977663     3.558661    -0.049592
 H    -3.020432    -1.710854     1.992827
 H    -1.570849    -2.056214     2.956438
 H    -2.699832    -0.762978     3.490183
 H    -0.645298     0.971500     3.744347
 H     0.599974    -0.169993     3.135101
 H     0.446216     1.443987     2.402269
 H     2.657244     0.451884     1.032617
 H     3.210717    -0.731945    -0.137933
 C     4.061429     1.246070    -0.422935
 H     4.309507     1.107335    -1.489335
 H     3.753143     2.300913    -0.318358
 C     5.315137     1.012368     0.410628
 H     5.626469    -0.043333     0.311520
 H     5.073142     1.151213     1.480166
 C     6.477205     1.920382     0.032877
 H     6.713026     1.778941    -1.036894
 H     6.159701     2.973898     0.130544
 C     7.725327     1.682644     0.867401
 H     8.546682     2.352422     0.571000
 H     8.085668     0.646855     0.760488
 H     7.528124     1.851754     1.938280
 H     2.214180    -0.650329    -2.887671
 H     0.902652     0.466267    -3.315991
 H     2.547781     1.115799    -2.999626
 H    -0.029913     2.439291    -1.335436
 H     0.746262     2.508521     0.264203
 H     1.696871     2.909956    -1.202515
