  90
scf done:    -1925.758202
 C    -0.678531    -3.130156    -0.445002
 H    -1.594996    -3.504719     0.024541
 H    -0.674738    -3.251714    -1.532949
 C     0.566291    -3.251067     0.273231
 H     0.557977    -3.706025     1.269445
 H     1.479532    -3.473474    -0.287986
 H     0.796536    -1.163378    -1.212632
Ir    -0.036104    -1.184503     0.209398
 C    -0.922903     1.352371    -2.229018
 C    -3.017386    -0.448947    -1.481416
 C    -2.167002     1.619811     0.351805
 C     1.491933     0.813050     2.651877
 C     3.357978    -0.707590     1.053055
 C     2.085291     1.617324    -0.123365
 P     1.730416     0.148339     0.943416
 P    -1.495378     0.337348    -0.795271
 C    -0.968626    -1.242501     1.868780
 O    -1.528991    -1.249504     2.876759
 H    -0.191578     2.070467    -1.824485
 C    -0.311785     0.552798    -3.367416
 H    -1.043105    -0.135548    -3.818149
 H     0.531351    -0.056570    -3.010180
 H    -1.781916     1.943731    -2.587139
 H     0.049755     1.220342    -4.164843
 H    -2.658102    -1.212907    -2.190972
 H    -3.584243     0.298036    -2.061851
 C    -3.876952    -1.104187    -0.410552
 H    -3.220331    -1.703177     0.241633
 H    -4.329428    -0.329617     0.236004
 C    -4.992298    -2.004739    -0.945101
 H    -4.514334    -2.774517    -1.580034
 C    -5.690833    -2.716760     0.207284
 H    -4.976791    -3.297245     0.811744
 H    -6.466957    -3.407777    -0.156752
 H    -6.179929    -1.990184     0.877792
 C    -5.994863    -1.241320    -1.803406
 H    -6.796797    -1.904195    -2.163896
 H    -5.522654    -0.785559    -2.686822
 H    -6.469442    -0.432281    -1.221818
 H    -1.288306     2.179173     0.718026
 H    -2.531636     1.049337     1.220714
 C    -3.233865     2.570629    -0.169261
 H    -2.818603     3.175588    -0.992609
 H    -4.071092     1.997165    -0.606405
 C    -3.804872     3.519207     0.890561
 H    -2.951909     4.047227     1.357973
 C    -4.702588     4.564149     0.237828
 H    -4.160939     5.141108    -0.528074
 H    -5.097547     5.275766     0.979295
 H    -5.565435     4.085061    -0.254602
 C    -4.554573     2.771613     1.988219
 H    -4.960599     3.469463     2.736555
 H    -3.912590     2.055490     2.522389
 H    -5.403247     2.207994     1.564712
 H     1.356821    -0.091388     3.268672
 C     2.528811     1.736415     3.270860
 H     2.569016     2.709227     2.759659
 H     3.540029     1.302788     3.249183
 H     0.500862     1.296086     2.632318
 H     2.282566     1.935197     4.325663
 H     3.217130    -1.507258     1.800083
 H     4.112255    -0.011743     1.454780
 C     3.803964    -1.310163    -0.271639
 H     2.979399    -1.925944    -0.662563
 H     3.957709    -0.510136    -1.019277
 C     5.077219    -2.154854    -0.193375
 H     4.906564    -2.936816     0.570727
 C     5.327664    -2.851075    -1.526050
 H     4.468453    -3.473135    -1.820834
 H     6.216629    -3.499407    -1.482332
 H     5.493850    -2.112226    -2.328112
 C     6.293869    -1.339328     0.231100
 H     7.199650    -1.964333     0.268651
 H     6.165463    -0.887443     1.226309
 H     6.484502    -0.522051    -0.485652
 H     1.282058     2.343013     0.098155
 H     1.885406     1.252551    -1.141776
 C     3.449906     2.289857    -0.062537
 H     3.682091     2.595551     0.968634
 H     4.233839     1.565558    -0.344104
 C     3.579449     3.516026    -0.972953
 H     2.791241     4.234425    -0.676273
 C     4.930420     4.189291    -0.759502
 H     5.078372     4.472137     0.294481
 H     5.028150     5.100195    -1.370107
 H     5.753509     3.510989    -1.040267
 C     3.371250     3.173583    -2.444631
 H     3.499699     4.063807    -3.079394
 H     2.366850     2.770775    -2.644194
 H     4.104550     2.419413    -2.777190
