  70
scf done:    -2460.383482
 C    -0.462561    -3.375633    -0.984448
 H    -1.176377    -3.990784    -0.424909
 H    -0.688844    -3.322689    -2.053582
 C     0.910570    -3.371643    -0.553183
 H     1.180208    -3.978752     0.318265
 H     1.708099    -3.312353    -1.300038
 H     0.533459    -1.108190    -1.635396
Ir     0.027861    -1.463623    -0.113194
 C    -1.715222     0.757999    -2.253496
 C    -3.419157    -0.563719    -0.382342
 C    -1.790457     1.548608     0.517814
 C     1.688521     0.685328     2.187594
 C     3.434818    -0.587741     0.318204
 C     1.764196     1.541381    -0.594222
 P     1.717079     0.041146     0.455882
 P    -1.698471     0.057115    -0.550331
 C    -0.513878    -1.941896     1.655406
 O    -0.823256    -2.217623     2.729760
 H    -0.760945     1.296581    -2.374483
 C    -1.870339    -0.313189    -3.319414
 H    -2.823125    -0.853297    -3.208799
 H    -1.055205    -1.048144    -3.252589
 H    -2.532940     1.494481    -2.319694
 H    -1.851409     0.136396    -4.323477
 C    -4.509133     0.318187    -0.369300
 H    -4.341119     1.397750    -0.413263
 C    -3.657764    -1.938057    -0.300216
 H    -2.802592    -2.617103    -0.305472
 C    -5.811201    -0.161162    -0.281601
 H    -6.671556     0.510332    -0.264580
 C    -4.957102    -2.433236    -0.212791
 H    -5.159585    -3.503648    -0.146188
 C    -6.016522    -1.535771    -0.205525
 F    -7.260905    -1.997839    -0.118141
 C    -1.906875     1.351054     1.902518
 H    -1.952891     0.335264     2.303469
 C    -1.731575     2.858986     0.033522
 H    -1.629691     3.051820    -1.035079
 C    -1.962212     2.426454     2.780967
 H    -2.056460     2.281631     3.858697
 C    -1.782048     3.949065     0.902763
 H    -1.732160     4.975321     0.534082
 C    -1.895611     3.718528     2.266117
 F    -1.942157     4.752980     3.101499
 H     1.514506    -0.212066     2.802925
 C     2.908379     1.444648     2.681591
 H     3.142957     2.316104     2.052301
 H     3.799304     0.800434     2.692547
 H     0.762622     1.278121     2.271867
 H     2.744023     1.808931     3.707531
 C     4.510392     0.212782    -0.086977
 H     4.338448     1.247433    -0.391613
 C     3.684583    -1.908903     0.708486
 H     2.844046    -2.539989     1.005118
 C     5.806825    -0.294444    -0.110935
 H     6.654331     0.314237    -0.431305
 C     4.976841    -2.424681     0.702883
 H     5.185084    -3.453348     1.002426
 C     6.022486    -1.608364     0.287579
 F     7.259693    -2.097306     0.266656
 C     2.027998     1.383261    -1.964323
 H     2.238117     0.386139    -2.359140
 C     1.470282     2.820893    -0.114438
 H     1.235683     2.978891     0.938947
 C     2.012654     2.470773    -2.829088
 H     2.218675     2.358139    -3.895014
 C     1.446014     3.921419    -0.971024
 H     1.212053     4.922462    -0.604417
 C     1.719699     3.732403    -2.317658
 F     1.697731     4.777270    -3.141271
