  96
scf done:    -2900.601601
 C     0.269525    -2.623583     1.709771
 H     0.945894    -3.390598     1.316155
 H     0.594995    -2.222638     2.675152
 C    -1.139921    -2.707228     1.415810
 H    -1.500373    -3.546719     0.812176
 H    -1.866972    -2.374576     2.163591
 H    -0.621310    -0.255422     1.664732
Ir    -0.271379    -1.101011     0.306096
 C     1.388908     1.705554     1.431526
 C     3.028820    -0.752324     1.003220
 C     2.549108     1.091218    -1.074703
 C    -2.033875     0.488912    -2.445698
 C    -3.725463    -0.425782    -0.472672
 C    -1.954944     1.868424     0.170498
 P    -1.992430     0.211610    -0.632918
 P     1.644780     0.262956     0.328007
 C     0.099871    -2.150019    -1.237524
 O     0.291018    -2.810293    -2.167216
 H     0.727585     2.384899     0.878179
 H     0.854747     1.356308     2.319460
 H     2.316269     2.212752     1.706674
 C     3.621460    -1.682265     0.128364
 O     3.138212    -1.682116    -1.129084
 C     3.592071    -2.624461    -2.054881
 H     3.001050    -2.471350    -2.965871
 H     4.663115    -2.487975    -2.286694
 H     3.426757    -3.656355    -1.700547
 C     3.442023    -0.762823     2.345381
 O     2.810997     0.088872     3.182026
 C     3.117480     0.074085     4.543548
 H     2.461768     0.815561     5.018672
 H     4.168545     0.355453     4.736366
 H     2.926936    -0.914056     4.998147
 C     4.451574    -1.630792     2.784143
 H     4.773718    -1.628051     3.824605
 C     4.631573    -2.552011     0.554989
 H     5.088950    -3.258446    -0.136600
 C     5.040716    -2.509670     1.882622
 H     5.828048    -3.184825     2.226146
 C     3.695854     1.869694    -0.801309
 O     4.115440     1.898949     0.478866
 C     5.342933     2.481430     0.804599
 H     5.502292     2.284743     1.872671
 H     6.171892     2.032391     0.230911
 H     5.342681     3.573399     0.639027
 C     2.183317     0.941131    -2.428006
 O     1.178037     0.097904    -2.712351
 C     0.944389    -0.270612    -4.042503
 H     0.199306    -1.073776    -4.013078
 H     1.862876    -0.650885    -4.522499
 H     0.548888     0.567063    -4.643765
 C     2.864279     1.629412    -3.444964
 H     2.556866     1.524710    -4.484234
 C     4.380198     2.558386    -1.812428
 H     5.249161     3.172135    -1.579191
 C     3.944570     2.440141    -3.125115
 H     4.469239     2.977591    -3.918859
 H    -2.255388    -0.496840    -2.878865
 H    -2.825154     1.201668    -2.714075
 H    -1.062285     0.846738    -2.789559
 C    -4.843954     0.339966    -0.094804
 O    -4.676159     1.674098    -0.040923
 C    -5.594003     2.466223     0.651521
 H    -5.151336     3.469104     0.715762
 H    -6.563626     2.535539     0.126694
 H    -5.767734     2.086081     1.673441
 C    -3.945421    -1.786165    -0.770940
 O    -2.919913    -2.435842    -1.350812
 C    -2.996440    -3.814654    -1.573238
 H    -2.024094    -4.113188    -1.984014
 H    -3.789915    -4.067340    -2.298809
 H    -3.176658    -4.368903    -0.636370
 C    -5.177334    -2.400689    -0.512106
 H    -5.323357    -3.461508    -0.711070
 C    -6.079234    -0.264603     0.174130
 H    -6.929047     0.333732     0.501442
 C    -6.225081    -1.633169    -0.017723
 H    -7.187728    -2.106740     0.189993
 C    -2.365526     1.960538     1.514454
 O    -2.949524     0.859485     2.019323
 C    -3.022573     0.678731     3.403077
 H    -3.371877    -0.349333     3.562158
 H    -2.033243     0.799808     3.875915
 H    -3.738738     1.374608     3.875995
 C    -1.310647     2.984184    -0.390359
 O    -0.809008     2.845295    -1.636762
 C     0.055242     3.818977    -2.149784
 H     0.414402     3.438922    -3.114516
 H     0.928244     3.974494    -1.492666
 H    -0.456446     4.783949    -2.312359
 C    -1.147406     4.169602     0.343231
 H    -0.658050     5.032865    -0.105329
 C    -2.180762     3.126526     2.262544
 H    -2.506346     3.176031     3.301295
 C    -1.583562     4.229159     1.660360
 H    -1.443027     5.148825     2.233183
