  66
scf done:    -1611.499570
 C     0.855813    -2.912092     0.558583
 H     1.699079    -3.284538    -0.033639
 H     1.020475    -2.995321     1.637601
 C    -0.480842    -3.081136     0.044221
 H    -0.614014    -3.569575    -0.926966
 H    -1.291003    -3.301892     0.746221
 H    -0.536461    -0.944108     1.478081
Ir     0.076929    -1.002612    -0.051437
 C     1.346676     1.453177     2.255865
 C     3.331559    -0.138682     0.951422
 C     1.961221     1.956803    -0.511858
 C    -1.788507     0.962097    -2.270911
 C    -3.406742    -0.605674    -0.463259
 C    -2.049291     1.750737     0.561344
 P    -1.799221     0.291049    -0.548074
 P     1.650371     0.565368     0.665681
 C     0.731844    -1.106253    -1.837002
 O     1.110786    -1.142407    -2.925517
 H     0.438547     2.056382     2.096510
 C     1.173299     0.538169     3.457135
 H     2.095401    -0.020297     3.679119
 H     0.374946    -0.196305     3.274075
 H     2.176389     2.160436     2.421771
 H     0.915175     1.118125     4.356458
 H     3.985939     0.633664     1.393435
 H     3.194423    -0.921995     1.715274
 C     3.965969    -0.745747    -0.291891
 H     4.113629     0.035472    -1.057843
 H     3.259148    -1.469082    -0.729219
 C     5.292833    -1.429604    -0.001937
 H     6.027604    -0.724394     0.419187
 H     5.165328    -2.247281     0.725336
 H     5.730107    -1.861291    -0.915036
 H     2.090043     1.481970    -1.499466
 H     1.002913     2.501962    -0.575240
 C     3.107193     2.919192    -0.230306
 H     4.056188     2.359498    -0.181633
 H     2.977335     3.381316     0.762595
 C     3.219935     4.010777    -1.284553
 H     3.385231     3.580928    -2.285370
 H     2.299407     4.614369    -1.334170
 H     4.056107     4.694281    -1.072246
 H    -1.703577     0.060860    -2.901104
 C    -2.917078     1.854351    -2.761727
 H    -2.920046     2.829841    -2.254277
 H    -3.906493     1.395409    -2.615170
 H    -0.815839     1.471604    -2.369875
 H    -2.806456     2.051288    -3.839575
 H    -4.229837     0.058929    -0.778151
 H    -3.328381    -1.406323    -1.218376
 C    -3.697310    -1.211247     0.903864
 H    -3.781338    -0.408670     1.657048
 H    -2.829600    -1.815643     1.209581
 C    -4.962021    -2.055057     0.915830
 H    -5.847487    -1.463069     0.632197
 H    -4.884603    -2.893769     0.205539
 H    -5.151397    -2.480751     1.913037
 H    -1.741816     1.390704     1.556895
 H    -1.278155     2.482792     0.261262
 C    -3.415676     2.420101     0.658003
 H    -4.165218     1.679757     0.981453
 H    -3.747858     2.769106    -0.331031
 C    -3.409851     3.587741     1.633969
 H    -3.114068     3.260634     2.643735
 H    -2.697754     4.367937     1.319822
 H    -4.403199     4.055256     1.712092
