 120
scf done:    -3214.855059
 C     1.178202    -3.194709    -1.250290
 H     1.713504    -3.211294    -2.204711
 H     1.739577    -3.672423    -0.440982
 C    -0.257912    -3.282920    -1.242908
 H    -0.790172    -3.363127    -2.196552
 H    -0.766002    -3.809232    -0.429178
 H     0.446998    -1.879196     0.791572
Ir     0.319236    -1.289812    -0.731881
 C     2.910449    -0.547872     1.477386
 C     3.374511     0.836746    -0.943945
 C     1.280442     1.810946     0.645191
 C    -2.213151     1.194941    -0.962694
 C    -3.227661    -1.410624    -0.441619
 C    -1.821923    -0.015416     1.749322
 P    -1.753144    -0.348016    -0.066892
 P     1.957161     0.186181     0.078309
 C     0.254412    -0.575390    -2.492123
 O     0.225998    -0.107117    -3.549983
 H     3.512042     0.230777     1.964113
 H     2.162045    -0.908371     2.195813
 C     3.779760    -1.692902     0.980291
 H     3.166974    -2.373440     0.368030
 H     4.562628    -1.299776     0.308627
 C     4.429477    -2.469714     2.116051
 H     3.640365    -2.871080     2.778663
 H     5.025562    -1.781902     2.744353
 C     5.313640    -3.612826     1.637763
 H     4.712893    -4.289066     1.004118
 H     6.099679    -3.207627     0.976072
 C     5.952680    -4.401557     2.769287
 H     6.584849    -5.219967     2.391775
 H     5.188170    -4.848248     3.425727
 H     6.586231    -3.755435     3.398707
 C     4.145574     1.919489    -0.469778
 O     3.940524     2.299122     0.808408
 C     4.354189     3.564218     1.236867
 H     3.911197     3.715396     2.230042
 H     5.452928     3.636603     1.320152
 H     3.987672     4.358032     0.564020
 C     3.687800     0.337410    -2.225512
 O     3.056250    -0.777568    -2.616477
 C     3.222690    -1.257900    -3.917868
 H     2.567896    -2.133661    -4.007934
 H     4.264658    -1.568329    -4.110987
 H     2.918368    -0.511107    -4.671010
 C     4.632949     0.976607    -3.042492
 H     4.845895     0.598329    -4.041038
 C     5.089709     2.562914    -1.279703
 H     5.661230     3.409656    -0.901373
 C     5.311034     2.090562    -2.566655
 H     6.046248     2.586807    -3.204932
 C     1.161485     2.226570     1.981363
 O     1.477836     1.323542     2.927963
 C     1.614188     1.726581     4.258100
 H     1.939327     0.840537     4.818477
 H     2.373837     2.521620     4.367086
 H     0.658837     2.076132     4.682118
 C     0.887083     2.713790    -0.360648
 O     0.968041     2.248568    -1.620187
 C     0.611907     3.064079    -2.698833
 H     0.722090     2.444035    -3.596331
 H     1.271470     3.945946    -2.775809
 H    -0.437355     3.399828    -2.624667
 C     0.460012     4.012694    -0.054897
 H     0.176029     4.706696    -0.844871
 C     0.754446     3.530015     2.297819
 H     0.694730     3.852843     3.336657
 C     0.418686     4.411072     1.275932
 H     0.103583     5.427942     1.523263
 H    -1.553269     1.979732    -0.572483
 H    -1.904199     0.988333    -1.998302
 C    -3.669736     1.623490    -0.922651
 H    -4.284451     0.886281    -1.465788
 H    -4.034552     1.617805     0.116380
 C    -3.875907     3.004204    -1.529028
 H    -3.521565     3.001344    -2.576829
 H    -3.229474     3.730719    -1.002117
 C    -5.318453     3.486590    -1.483770
 H    -5.960001     2.756298    -2.007753
 H    -5.664230     3.483579    -0.434489
 C    -5.516237     4.868608    -2.085225
 H    -6.567550     5.191096    -2.034971
 H    -5.212394     4.890057    -3.144423
 H    -4.911297     5.624142    -1.557469
 C    -4.216959    -1.801837     0.482291
 O    -4.240966    -1.162716     1.665711
 C    -4.942314    -1.703893     2.744600
 H    -4.660990    -1.109131     3.623956
 H    -6.036322    -1.640811     2.604340
 H    -4.665002    -2.757765     2.921663
 C    -3.349591    -1.907427    -1.757039
 O    -2.523342    -1.367024    -2.672467
 C    -2.522044    -1.853034    -3.984904
 H    -1.748105    -1.289458    -4.519149
 H    -3.496953    -1.694238    -4.478266
 H    -2.272545    -2.927813    -4.020187
 C    -4.299768    -2.879766    -2.090926
 H    -4.358025    -3.277089    -3.103003
 C    -5.164876    -2.783557     0.161300
 H    -5.902993    -3.098800     0.898013
 C    -5.184102    -3.325822    -1.116463
 H    -5.923737    -4.089626    -1.368266
 C    -1.609339    -1.131199     2.587348
 O    -1.643294    -2.327035     1.977749
 C    -1.076685    -3.444930     2.598545
 H    -1.062360    -4.243939     1.846985
 H    -0.042049    -3.242520     2.922099
 H    -1.673050    -3.780392     3.465783
 C    -1.980296     1.234950     2.372641
 O    -2.241627     2.304559     1.591860
 C    -2.730855     3.478453     2.171113
 H    -2.980763     4.152549     1.341595
 H    -1.977523     3.974229     2.804662
 H    -3.639346     3.285410     2.768566
 C    -1.877243     1.364926     3.766440
 H    -2.005122     2.339734     4.235103
 C    -1.453777    -1.002288     3.970303
 H    -1.269339    -1.878413     4.591200
 C    -1.596883     0.253142     4.549174
 H    -1.501222     0.364756     5.632199
