  70
scf done:    -1912.291600
 C     0.893437    -3.053973    -0.600256
 H     1.617224    -3.177122    -1.411770
 H     1.266483    -3.392879     0.369806
 C    -0.509477    -3.148594    -0.891037
 H    -0.829424    -3.344934    -1.919364
 H    -1.175642    -3.588483    -0.142649
 H    -0.251049    -1.465673     1.077421
Ir     0.033428    -1.081037    -0.494727
 C     1.398329     1.273402     1.837577
 O     2.938866    -0.771187     0.932126
 O     2.583993     1.163401    -0.604264
 C    -2.527006     0.884572    -1.904246
 O    -3.228640    -0.388494     0.280394
 O    -1.586003     1.553762     0.622847
 P    -1.834501     0.227576    -0.334722
 P     1.718027     0.175425     0.401469
 C     0.430263    -0.688603    -2.329093
 O     0.685176    -0.435397    -3.420284
 H     0.695488     2.043962     1.485575
 C     0.804355     0.534951     3.025444
 H     1.447775    -0.297227     3.347318
 H    -0.175258     0.114013     2.762345
 H     2.345472     1.771452     2.105639
 H     0.667485     1.215506     3.879405
 C     4.232494    -0.273093     1.282538
 H     4.191704     0.828274     1.360690
 C     5.201936    -0.640858     0.177049
 H     4.874829    -0.190777    -0.770097
 H     5.234547    -1.733879     0.051671
 H     6.216897    -0.283816     0.409872
 C     4.604517    -0.857969     2.629506
 H     3.888745    -0.547613     3.404568
 H     4.598649    -1.957316     2.578324
 H     5.609499    -0.528127     2.933087
 C     2.344609     2.541510    -0.862333
 H     2.336973     3.088153     0.099675
 C     1.015217     2.766489    -1.560148
 H     0.176413     2.422959    -0.938408
 H     0.988927     2.221722    -2.515822
 H     0.871947     3.838402    -1.764688
 C     3.523437     3.025011    -1.681795
 H     4.466261     2.843370    -1.146033
 H     3.561965     2.484621    -2.639741
 H     3.438154     4.102040    -1.888678
 H    -2.405501     0.034631    -2.595752
 C    -3.966609     1.373399    -1.937522
 H    -4.114942     2.296823    -1.360784
 H    -4.642405     0.610217    -1.527778
 H    -1.813328     1.651463    -2.249609
 H    -4.272024     1.583587    -2.974034
 C    -3.277538    -1.552716     1.110038
 H    -2.397499    -2.171101     0.867279
 C    -4.542801    -2.299704     0.747017
 H    -4.536461    -2.565701    -0.319795
 H    -5.431036    -1.679425     0.944928
 H    -4.627559    -3.225323     1.335518
 C    -3.211685    -1.154705     2.570096
 H    -2.261023    -0.647735     2.788825
 H    -4.041145    -0.477381     2.827665
 H    -3.275790    -2.043566     3.215387
 C    -2.591693     2.481359     1.038704
 H    -3.583421     2.061524     0.800229
 C    -2.388115     3.793742     0.305081
 H    -2.433621     3.655955    -0.784401
 H    -1.402375     4.217532     0.551856
 H    -3.159120     4.524985     0.591555
 C    -2.481735     2.641475     2.542013
 H    -2.637465     1.679341     3.047425
 H    -1.482791     3.015816     2.814628
 H    -3.232135     3.355702     2.913102
