  86
scf done:    -2521.397196
 C     1.220560    -3.117332    -0.335045
 H     1.736461    -3.118253    -1.301454
 H     1.875750    -3.374370     0.502842
 C    -0.168849    -3.485938    -0.290817
 H    -0.658466    -3.772625    -1.228805
 H    -0.551258    -4.029652     0.578563
 H     0.238717    -1.807476     1.614597
Ir     0.057208    -1.360042     0.038115
 C     1.520372     0.839419     2.364636
 C     3.310602    -0.783227     0.738007
 C     2.076313     1.640766    -0.335095
 C    -2.263598    -0.852236     2.559312
 C    -2.109255     1.397913     0.727294
 C    -3.504276    -1.031730    -0.039833
 P    -1.967744    -0.429898     0.784131
 P     1.735035     0.139920     0.670599
 C    -0.097552    -0.900980    -1.807139
 O    -0.154887    -0.639972    -2.928004
 H     1.416666    -0.034722     3.027755
 C     2.535090     1.843162     2.882571
 H     2.553809     2.744284     2.252324
 H     3.553446     1.431233     2.898835
 H     0.518541     1.294646     2.315182
 H     2.272979     2.157414     3.905434
 C     3.860884    -1.254244     1.926469
 H     3.396821    -0.990381     2.878674
 C     3.907526    -1.165940    -0.480527
 O     3.308718    -0.693525    -1.589565
 C     3.717380    -1.135714    -2.850760
 H     4.745152    -0.807799    -3.088016
 H     3.021998    -0.690993    -3.573719
 H     3.664601    -2.235628    -2.931400
 C     4.993559    -2.072813     1.925751
 H     5.407781    -2.431885     2.870184
 C     5.039568    -1.981248    -0.489869
 H     5.501546    -2.275738    -1.432782
 C     5.581159    -2.428316     0.717663
 H     6.466429    -3.068642     0.702548
 C     1.018086     2.174005    -1.066862
 H     0.059635     1.656539    -1.027232
 C     3.329198     2.289524    -0.397703
 O     4.327523     1.758981     0.331009
 C     5.623224     2.270411     0.226179
 H     5.992775     2.235861    -0.813608
 H     6.258712     1.629623     0.850729
 H     5.687893     3.310144     0.593411
 C     1.163714     3.326821    -1.838111
 H     0.310078     3.730296    -2.385931
 C     3.488353     3.431508    -1.189580
 H     4.456083     3.930296    -1.247905
 C     2.405019     3.947263    -1.901201
 H     2.544461     4.845167    -2.508493
 H    -1.412942    -0.415782     3.108198
 C    -3.598083    -0.512338     3.198120
 H    -4.423014    -1.030613     2.688186
 H    -3.816458     0.563753     3.163828
 H    -2.080733    -1.938030     2.578950
 H    -3.604357    -0.832299     4.252182
 C    -1.933970     2.207556     1.847818
 H    -1.782520     1.748404     2.826661
 C    -2.303869     2.021307    -0.522517
 O    -2.420099     1.183153    -1.570144
 C    -2.570561     1.688151    -2.866390
 H    -3.504720     2.267041    -2.970719
 H    -2.603736     0.818539    -3.533214
 H    -1.715461     2.322707    -3.156669
 C    -1.956157     3.601186     1.750025
 H    -1.810384     4.213034     2.642595
 C    -2.349259     3.411929    -0.626852
 H    -2.509061     3.888990    -1.594305
 C    -2.171050     4.197652     0.513527
 H    -2.195727     5.286137     0.423197
 C    -3.421257    -2.230077    -0.747268
 H    -2.447409    -2.723137    -0.784386
 C    -4.746369    -0.360505    -0.002341
 O    -4.798107     0.794161     0.688571
 C    -5.963174     1.564456     0.684200
 H    -6.258679     1.853741    -0.339621
 H    -5.734901     2.472152     1.257477
 H    -6.808142     1.038631     1.163286
 C    -4.526436    -2.776938    -1.399843
 H    -4.430288    -3.719453    -1.942548
 C    -5.853824    -0.895828    -0.668299
 H    -6.812664    -0.377300    -0.646836
 C    -5.740152    -2.101870    -1.360027
 H    -6.616495    -2.507851    -1.871730
