  66
scf done:    -1611.480559
 C    -1.338514    -2.646439    -0.634261
 H    -2.026265    -3.028810     0.127614
 H    -1.806978    -2.535067    -1.617936
 C     0.047766    -3.020932    -0.572689
 H     0.386420    -3.675780     0.237279
 H     0.581814    -3.183338    -1.513152
 H     0.029266    -0.712106    -1.648663
Ir    -0.173908    -0.938718    -0.033870
 C    -1.882603     1.570989    -1.871168
 C    -3.553347    -0.045126    -0.173667
 C    -1.975985     2.154720     0.962412
 C     2.075048     1.021068     1.796017
 C     3.450279    -0.800744    -0.037043
 C     1.982268     1.632249    -1.100754
 P     1.881947     0.219267     0.127244
 P    -1.839246     0.713084    -0.229326
 C    -0.306703    -1.314792     1.827720
 O    -0.346562    -1.566304     2.952900
 H    -0.891527     2.034933    -1.991571
 C    -2.160223     0.653543    -3.050962
 H    -3.182731     0.247635    -3.028968
 H    -1.460169    -0.195302    -3.052081
 H    -2.614747     2.394858    -1.828715
 H    -2.042520     1.197385    -4.000699
 H    -3.459890    -0.824242    -0.949349
 C    -3.848318    -0.752821     1.143749
 H    -4.720047    -1.416344     1.028043
 H    -2.998958    -1.365076     1.476090
 H    -4.093443    -0.035315     1.941968
 C    -4.694275     0.890439    -0.556519
 H    -4.559899     1.350194    -1.545841
 H    -5.643103     0.330320    -0.583013
 H    -4.824474     1.700689     0.178513
 H    -3.020695     2.502241     0.879198
 C    -1.717101     1.711565     2.397558
 H    -1.907745     2.545098     3.092835
 H    -2.345211     0.866138     2.705143
 H    -0.671402     1.398102     2.524223
 C    -1.063999     3.319283     0.593182
 H    -1.295158     3.749960    -0.390879
 H    -1.165464     4.124874     1.338112
 H    -0.006863     3.013432     0.588217
 H     1.612666     0.297542     2.484565
 C     3.424065     1.440337     2.361312
 H     3.931857     2.199676     1.751533
 H     4.104602     0.583533     2.470497
 H     1.380653     1.876118     1.774401
 H     3.283796     1.867673     3.366819
 H     3.511905    -1.255228     0.969904
 C     3.293779    -1.938219    -1.038484
 H     4.189012    -2.580581    -1.017723
 H     2.412965    -2.546422    -0.808243
 H     3.178390    -1.560665    -2.065816
 C     4.746379    -0.038669    -0.305051
 H     4.926206     0.787819     0.391605
 H     5.600558    -0.730676    -0.223959
 H     4.764077     0.368867    -1.326481
 H     0.949220     2.009276    -1.028645
 C     2.907652     2.798352    -0.773272
 H     2.765814     3.596809    -1.520385
 H     2.691618     3.237148     0.211380
 H     3.969253     2.517016    -0.797019
 C     2.170417     1.135482    -2.529947
 H     1.487108     0.303909    -2.754962
 H     1.962826     1.951455    -3.241164
 H     3.200627     0.797000    -2.715423
