  54
scf done:    -1454.369858
 C     1.057262    -2.634287     0.784710
 H     1.755478    -3.097562     0.078945
 H     1.461516    -2.556872     1.799060
 C    -0.355521    -2.864313     0.614319
 H    -0.690909    -3.489983    -0.219665
 H    -0.984853    -2.966843     1.503924
 H    -0.137989    -0.535033     1.690900
Ir     0.115649    -0.828984     0.088083
 C     1.829913     1.860548     1.726110
 C     3.494234     0.144734     0.151384
 C     1.756672     2.063093    -1.150753
 C    -2.350922     0.792634    -1.873248
 C    -3.368325    -0.543197     0.504226
 C    -1.922608     1.949519     0.794402
 P    -1.884394     0.349557    -0.134143
 P     1.771883     0.808286     0.210483
 C     0.347371    -1.193887    -1.765881
 O     0.455406    -1.385842    -2.898120
 H     0.873795     2.407792     1.748167
 C     2.022279     1.080277     3.016638
 H     3.007795     0.591777     3.054084
 H     1.255580     0.297148     3.114230
 H     2.628726     2.610744     1.602019
 H     1.952333     1.746476     3.890104
 H     3.572519    -0.535556     1.014239
 C     3.812273    -0.606417    -1.130554
 H     3.759739     0.045582    -2.016646
 H     3.101798    -1.432248    -1.281709
 H     4.207726     0.969101     0.323339
 H     4.826138    -1.033248    -1.095203
 H     0.793971     2.591247    -1.043416
 C     2.912842     3.046030    -1.240613
 H     3.872137     2.533007    -1.406558
 H     3.013611     3.653974    -0.328807
 H     1.663370     1.478365    -2.080651
 H     2.767397     3.742544    -2.081072
 H    -1.982565    -0.042543    -2.488760
 C    -3.805745     1.077046    -2.217974
 H    -4.232794     1.900493    -1.629105
 H    -4.438583     0.191844    -2.057332
 H    -1.703533     1.648701    -2.130582
 H    -3.897199     1.350323    -3.280890
 H    -3.408536    -1.481852    -0.072448
 C    -3.295553    -0.838212     1.993865
 H    -3.338570     0.084218     2.593946
 H    -2.356921    -1.353348     2.242930
 H    -4.280608     0.025862     0.261771
 H    -4.136487    -1.474791     2.308534
 H    -1.108282     2.551271     0.357775
 C    -3.210492     2.754494     0.863093
 H    -4.053219     2.154741     1.239122
 H    -3.498115     3.157265    -0.118470
 H    -1.573943     1.677296     1.803890
 H    -3.093109     3.612577     1.543509
