  80
scf done:    -2442.847377
 C     0.265862    -3.421926     1.576101
 H     1.019184    -4.124795     1.202585
 H     0.383615    -3.196493     2.640741
 C    -1.060234    -3.479152     1.016444
 H    -1.260199    -4.218841     0.232776
 H    -1.922781    -3.290701     1.662987
 H    -0.721344    -1.062033     1.750619
Ir    -0.084759    -1.678537     0.362170
 C     1.871602     0.139565     2.599508
 C     3.383140    -0.892707     0.426235
 C     1.748083     1.387350     0.016336
 C    -1.490284    -0.117035    -2.482111
 C    -3.395633    -0.718323    -0.485165
 C    -1.644532     1.492045    -0.106038
 P    -1.629550    -0.253046    -0.657049
 P     1.709554    -0.254012     0.817746
 C     0.593351    -2.417247    -1.262893
 O     0.979490    -2.835882    -2.263368
 H     0.956039     0.636534     2.949479
 H     1.963507    -0.818447     3.129201
 H     2.755062     0.761009     2.807216
 C     3.602768    -2.275296     0.348208
 H     2.755609    -2.951537     0.482766
 C     4.473259    -0.036881     0.246354
 H     4.326639     1.045716     0.290106
 C     4.868770    -2.784023     0.103924
 H     5.046841    -3.858957     0.038478
 C     5.750846    -0.533821    -0.005797
 H     6.575505     0.164728    -0.149778
 C     5.955420    -1.917408    -0.077339
 O     7.147010    -2.497000    -0.318468
 C     8.268097    -1.682868    -0.516035
 H     8.486522    -1.061013     0.370241
 H     9.117388    -2.354384    -0.695100
 H     8.146582    -1.020891    -1.391691
 C     1.807961     1.448253    -1.386209
 H     1.894212     0.520640    -1.960404
 C     1.650506     2.585362     0.721649
 H     1.599611     2.581435     1.811453
 C     1.754298     2.660823    -2.052728
 H     1.790524     2.714481    -3.142608
 C     1.589033     3.814142     0.064210
 H     1.480456     4.725860     0.651159
 C     1.619794     3.857219    -1.330456
 O     1.501778     4.987779    -2.054262
 C     1.342374     6.203625    -1.374277
 H     2.225350     6.443170    -0.755269
 H     1.228074     6.979671    -2.141703
 H     0.447259     6.200146    -0.727698
 H    -1.544418    -1.136382    -2.888655
 H    -2.303219     0.481661    -2.917231
 H    -0.514565     0.313708    -2.748579
 C    -4.424047     0.228970    -0.365882
 H    -4.182290     1.293539    -0.320486
 C    -3.741799    -2.069876    -0.532127
 H    -2.946714    -2.815563    -0.602304
 C    -5.750897    -0.167629    -0.294005
 H    -6.557312     0.561260    -0.192399
 C    -5.072080    -2.481876    -0.472896
 H    -5.301300    -3.547081    -0.510701
 C    -6.088110    -1.527309    -0.349109
 O    -7.401490    -1.819388    -0.270866
 C    -7.797648    -3.161071    -0.314600
 H    -7.376013    -3.742119     0.524643
 H    -8.892293    -3.169209    -0.236484
 H    -7.504522    -3.646091    -1.262591
 C    -1.636923     2.572392    -0.998356
 H    -1.607752     2.402135    -2.075139
 C    -1.679224     1.770942     1.263169
 H    -1.678861     0.940020     1.973943
 C    -1.648518     3.880907    -0.539350
 H    -1.622629     4.720173    -1.236734
 C    -1.696765     3.080575     1.739290
 H    -1.716247     3.255564     2.815342
 C    -1.663380     4.146880     0.833201
 O    -1.610528     5.450249     1.187226
 C    -1.629606     5.778755     2.548323
 H    -0.760273     5.358622     3.084964
 H    -1.589305     6.873681     2.609675
 H    -2.552551     5.427824     3.042069
