  88
scf done:    -2299.306290
 C    -1.696451     1.363013    -2.956709
 H    -2.062635     0.695153    -3.744645
 H    -2.477664     2.005155    -2.538505
 C    -0.352220     1.869442    -3.063096
 H     0.250081     1.565450    -3.926302
 H    -0.131415     2.886353    -2.724997
 H    -0.864833     1.770195    -0.585708
Ir    -0.443991     0.448412    -1.458563
 C    -2.259451     0.208838     1.584910
 C    -3.257926    -1.543380    -0.436322
 C    -0.829963    -2.185259     0.869650
 C     2.460846    -0.989027    -0.013960
 C     2.820470     1.718348    -0.863044
 C     1.274344     1.200520     1.493378
 P     1.527834     0.588339    -0.215705
 P    -1.696867    -0.750732     0.119011
 C     0.046953    -1.037235    -2.557108
 O     0.360268    -1.922660    -3.223542
 H    -2.740304    -0.484357     2.295697
 H    -1.349883     0.607078     2.063464
 C    -3.200191     1.348759     1.228843
 H    -2.728203     1.966654     0.446787
 H    -4.125546     0.942858     0.784311
 C    -3.541612     2.217123     2.431210
 H    -2.604355     2.597731     2.876572
 H    -4.015602     1.597800     3.214967
 C    -4.452631     3.388408     2.092695
 H    -3.976368     3.997118     1.303894
 H    -5.387161     3.003990     1.647165
 C    -4.778261     4.265343     3.290828
 H    -5.435220     5.104570     3.016102
 H    -3.863123     4.690884     3.733945
 H    -5.286908     3.689853     4.081214
 C    -3.816068    -1.181874    -1.664201
 C    -3.918631    -2.478329     0.372080
 C    -5.679822    -2.667239    -1.269712
 C    -5.123945    -3.036740    -0.043322
 C    -5.025168    -1.741064    -2.078486
 H    -3.282053    -0.458877    -2.284866
 H    -5.454424    -1.452862    -3.041093
 H    -6.624865    -3.108621    -1.595836
 H    -5.631578    -3.768474     0.590011
 H    -3.479586    -2.781710     1.326813
 C    -0.450836    -2.232981     2.215256
 C    -0.454207    -3.240643     0.024586
 C     0.696663    -4.330752     1.847513
 C     0.299743    -4.303824     0.508452
 C     0.314131    -3.297074     2.698288
 H    -0.733226    -1.429780     2.896638
 H     0.610292    -3.314850     3.750303
 H     1.298246    -5.160616     2.225709
 H     0.587497    -5.114191    -0.165420
 H    -0.746482    -3.221823    -1.028201
 H     1.808800    -1.648210     0.582952
 H     2.471768    -1.435649    -1.021732
 C     3.870056    -0.926873     0.555081
 H     4.525562    -0.386513    -0.147716
 H     3.885662    -0.333842     1.485498
 C     4.438851    -2.312157     0.831796
 H     4.415479    -2.908346    -0.098571
 H     3.774620    -2.843907     1.538120
 C     5.856333    -2.290076     1.385488
 H     6.514093    -1.760544     0.673847
 H     5.873133    -1.686522     2.310521
 C     6.415220    -3.675265     1.667606
 H     7.439463    -3.628292     2.067574
 H     6.443416    -4.288182     0.752273
 H     5.795352    -4.213738     2.402799
 C     3.004180     1.778818    -2.249040
 C     3.664876     2.461159    -0.029034
 C     4.858329     3.298326    -1.956773
 C     4.674802     3.251057    -0.575480
 C     4.022957     2.557808    -2.792566
 H     2.325546     1.219106    -2.897001
 H     4.156876     2.596289    -3.876310
 H     5.650561     3.918543    -2.383112
 H     5.324361     3.832045     0.083878
 H     3.530922     2.425251     1.054640
 C     0.740362     2.487896     1.658062
 C     1.489727     0.411609     2.627801
 C     0.630818     2.168776     4.050450
 C     1.162983     0.891488     3.897874
 C     0.427803     2.970069     2.924387
 H     0.551268     3.105649     0.776696
 H     0.011413     3.974329     3.033832
 H     0.373720     2.542538     5.044314
 H     1.328790     0.257928     4.772818
 H     1.896815    -0.595218     2.530463
