 100
scf done:    -2456.450206
 C     1.425187    -1.797966    -2.988322
 H     1.913782    -1.235915    -3.792278
 H     2.068343    -2.564735    -2.545550
 C     0.008920    -2.043538    -3.089733
 H    -0.523897    -1.658120    -3.966075
 H    -0.400716    -2.989731    -2.723418
 H     0.531950    -1.966441    -0.613323
Ir     0.365870    -0.617212    -1.528315
 C     2.145752    -0.586789     1.556126
 C     3.505005     0.820643    -0.525005
 C     1.224871     1.989307     0.690035
 C    -2.188802     1.393324    -0.115456
 C    -3.091274    -1.198381    -0.926491
 C    -1.464361    -0.966751     1.421208
 P    -1.599717    -0.342989    -0.294455
 P     1.812264     0.381475     0.026787
 C     0.165343     0.895053    -2.679244
 O     0.026286     1.797025    -3.382223
 H     2.760218     0.032890     2.231222
 H     1.169352    -0.746437     2.041185
 C     2.816107    -1.926361     1.300535
 H     2.222667    -2.482468     0.555772
 H     3.810683    -1.768789     0.848035
 C     2.946873    -2.752190     2.572497
 H     1.945933    -2.860786     3.028402
 H     3.556405    -2.201804     3.312876
 C     3.547511    -4.132027     2.347811
 H     2.939622    -4.670001     1.599116
 H     4.549212    -4.024517     1.895557
 C     3.643773    -4.958625     3.619953
 H     4.074998    -5.953409     3.430573
 H     2.649968    -5.108412     4.073300
 H     4.275006    -4.460651     4.373799
 C     4.010514     0.287084    -1.710533
 H     3.362753    -0.355936    -2.310594
 C     4.325773     1.656575     0.244915
 H     3.941358     2.098097     1.168960
 C     5.313283     0.575968    -2.115557
 H     5.693683     0.147459    -3.046997
 C     5.621784     1.942350    -0.165647
 H     6.248269     2.598850     0.445355
 C     6.139846     1.406742    -1.354451
 C     7.533863     1.740823    -1.798207
 H     8.256218     1.619835    -0.976336
 H     7.855647     1.102584    -2.632932
 H     7.600236     2.788675    -2.134491
 C     0.834530     2.179171     2.018126
 H     0.964846     1.383029     2.751807
 C     1.049828     3.052442    -0.209501
 H     1.356958     2.936687    -1.251756
 C     0.243517     3.378190     2.422420
 H    -0.065826     3.496786     3.465006
 C     0.470375     4.245127     0.200402
 H     0.337667     5.053133    -0.524538
 C     0.036292     4.426050     1.522716
 C    -0.646600     5.694743     1.940174
 H    -0.118771     6.581254     1.557284
 H    -1.675115     5.734487     1.543640
 H    -0.709513     5.779224     3.034254
 H    -1.405338     1.912703     0.459769
 H    -2.123767     1.816051    -1.131341
 C    -3.567738     1.639300     0.477978
 H    -4.340861     1.284420    -0.223502
 H    -3.707546     1.042731     1.395622
 C    -3.786551     3.111951     0.798963
 H    -3.624058     3.712493    -0.114803
 H    -3.006722     3.442637     1.509876
 C    -5.159668     3.424548     1.374742
 H    -5.935870     3.103991     0.657743
 H    -5.319923     2.812108     2.279919
 C    -5.346439     4.895246     1.711378
 H    -6.344460     5.096424     2.129416
 H    -5.227464     5.527413     0.816491
 H    -4.602081     5.232317     2.451396
 C    -3.285678    -1.259034    -2.310633
 H    -2.509231    -0.866140    -2.971457
 C    -4.076344    -1.728972    -0.086621
 H    -3.945908    -1.693224     0.997697
 C    -4.441230    -1.824877    -2.839050
 H    -4.575225    -1.858470    -3.924030
 C    -5.224563    -2.306299    -0.622977
 H    -5.982235    -2.718565     0.049601
 C    -5.429330    -2.364643    -2.006104
 C    -6.652120    -3.015900    -2.582542
 H    -6.447827    -4.066006    -2.851105
 H    -7.485605    -3.017174    -1.865527
 H    -6.986242    -2.506426    -3.498369
 C    -1.492094    -0.140290     2.546545
 H    -1.699830     0.925401     2.444972
 C    -1.188862    -2.330820     1.606519
 H    -1.150231    -2.992175     0.737423
 C    -1.220829    -0.656059     3.815936
 H    -1.233385     0.015087     4.679477
 C    -0.934721    -2.840130     2.871849
 H    -0.717134    -3.905863     2.987169
 C    -0.929081    -2.008501     4.002789
 C    -0.596662    -2.563542     5.355942
 H    -1.218134    -3.440861     5.593320
 H     0.454818    -2.893116     5.396355
 H    -0.744146    -1.816430     6.148140
