  68
scf done:    -4123.719351
 C     0.268971    -4.566815    -0.309806
 H     1.021733    -4.967033    -0.996141
 H     0.343606    -4.967281     0.705220
 C    -1.021925    -4.210285    -0.823546
 H    -1.223500    -4.347483    -1.890812
 H    -1.902835    -4.336241    -0.187822
 H    -0.558007    -2.615220     1.142706
Ir     0.079872    -2.410709    -0.348577
 C     3.078945    -2.793777     1.470504
 O     2.797351    -0.598402    -0.115478
 O     1.637096    -0.784396     2.219262
 C    -2.279690    -0.682019    -2.277153
 O    -2.844343    -1.149272     0.352017
 O    -1.397494     0.773676    -0.231604
 P    -1.551095    -0.844870    -0.619362
 P     1.866811    -1.627262     0.805439
 C     0.873608    -2.226689    -2.100082
 O     1.369259    -2.095379    -3.125019
 H     2.541323    -3.467220     2.152272
 H     3.476012    -3.384367     0.633359
 H     3.897323    -2.295820     2.007590
 C     4.036128    -0.080930     0.137822
 C     4.878942     0.081972    -0.963724
 H     4.525265    -0.240850    -1.944842
 C     4.456366     0.323023     1.407858
 H     3.794555     0.205667     2.266450
 C     6.139316     0.645055    -0.803117
 H     6.802950     0.777125    -1.659066
 C     5.722963     0.880696     1.569361
 H     6.061829     1.199541     2.556326
 C     6.559242     1.041507     0.467036
Cl     8.129995     1.740470     0.673117
 C     0.674733     0.187115     2.347836
 C    -0.553414    -0.137047     2.920985
 H    -0.746113    -1.166126     3.225208
 C     0.950526     1.493811     1.949149
 H     1.915827     1.733730     1.500728
 C    -1.520986     0.848387     3.080895
 H    -2.492316     0.606642     3.514620
 C    -0.014711     2.482905     2.106936
 H     0.178563     3.504770     1.778476
 C    -1.248250     2.148363     2.658436
Cl    -2.485183     3.363441     2.776113
 H    -2.603771    -1.674817    -2.619320
 H    -3.125886     0.019836    -2.280435
 H    -1.498471    -0.313857    -2.958523
 C    -4.063014    -0.530651     0.228860
 C    -5.120347    -1.246302    -0.332355
 H    -4.944823    -2.265515    -0.682021
 C    -4.261844     0.768153     0.697641
 H    -3.431172     1.314554     1.139884
 C    -6.380276    -0.663854    -0.432767
 H    -7.215864    -1.213886    -0.868292
 C    -5.520620     1.353118     0.598768
 H    -5.685706     2.366418     0.968351
 C    -6.573922     0.637034     0.031369
Cl    -8.139978     1.366811    -0.093218
 C    -0.702563     1.708410    -0.935048
 C    -1.290296     2.967327    -1.075934
 H    -2.282195     3.137285    -0.653753
 C     0.574627     1.471047    -1.448027
 H     1.057320     0.505237    -1.298673
 C    -0.603607     3.989924    -1.721771
 H    -1.053029     4.978271    -1.830664
 C     1.259413     2.492307    -2.101044
 H     2.262463     2.317101    -2.493549
 C     0.670526     3.748079    -2.235852
Cl     1.528756     5.020283    -3.041356
