  60
scf done:    -1532.928123
 C    -0.896996    -2.624526    -1.028745
 H    -1.578479    -3.186721    -0.380855
 H    -1.278494    -2.503379    -2.047850
 C     0.523558    -2.771124    -0.833428
 H     0.879521    -3.437265    -0.039409
 H     1.179878    -2.762851    -1.708863
 H     0.157887    -0.420260    -1.754005
Ir    -0.095889    -0.818419    -0.178141
 C    -1.722029     1.836219    -1.818237
 C    -3.478518    -0.135832    -0.725567
 C    -2.268482     1.922220     1.012057
 C     1.953843     0.962164     2.058063
 C     3.372146    -0.721099     0.180427
 C     2.183129     1.970108    -0.619401
 P     1.864818     0.380470     0.317387
 P    -1.853790     0.722474    -0.365573
 C    -0.358436    -1.401261     1.617201
 O    -0.484434    -1.794520     2.693639
 H    -0.751402     2.347168    -1.795923
 H    -1.749732     1.212383    -2.723052
 H    -2.527248     2.584216    -1.860128
 H    -3.183226    -0.771215    -1.579546
 C    -3.906655    -1.060363     0.407544
 H    -4.690838    -1.750661     0.058402
 H    -3.063886    -1.662454     0.775544
 H    -4.327849    -0.493746     1.252734
 C    -4.622835     0.770995    -1.162105
 H    -4.380903     1.361553    -2.056943
 H    -5.510580     0.163854    -1.402749
 H    -4.921591     1.469210    -0.363453
 H    -3.315750     2.226386     0.836639
 C    -2.165454     1.263115     2.381586
 H    -2.520456     1.953290     3.163838
 H    -2.749744     0.337229     2.458398
 H    -1.120868     1.005106     2.608600
 C    -1.394600     3.170287     0.959115
 H    -1.544525     3.759154     0.043607
 H    -1.618917     3.825904     1.815708
 H    -0.326903     2.906411     1.020449
 H     1.840660     0.092082     2.720898
 H     2.889599     1.481807     2.306414
 H     1.106525     1.636428     2.244593
 H     2.962503    -1.654007     0.605677
 C     3.714255    -0.999513    -1.278767
 H     4.370558    -1.880896    -1.354996
 H     2.810058    -1.195269    -1.872993
 H     4.251071    -0.152364    -1.732854
 C     4.604959    -0.334658     0.989744
 H     4.389604    -0.236945     2.063245
 H     5.373074    -1.118363     0.884175
 H     5.054563     0.608091     0.646397
 H     1.328802     2.572550    -0.258807
 C     3.467793     2.712118    -0.266275
 H     3.456384     3.715516    -0.722223
 H     3.607197     2.846317     0.815796
 H     4.351634     2.189939    -0.662127
 C     2.034525     1.832733    -2.130855
 H     1.166789     1.213758    -2.395620
 H     1.913695     2.827698    -2.589070
 H     2.923673     1.371098    -2.583216
