  88
scf done:    -2147.984729
 C    -1.207101    -1.691193    -2.930764
 H    -1.461120    -2.753574    -2.864462
 H    -2.041707    -1.064251    -3.255415
 C     0.136252    -1.310650    -3.266537
 H     0.881017    -2.090956    -3.453083
 H     0.295436    -0.412268    -3.870677
 H    -0.810646     0.536357    -1.695734
Ir    -0.248585    -0.913463    -1.164860
 C    -2.238221     0.845550     1.244121
 O    -3.409821    -0.941416    -0.417066
 O    -2.120174    -1.856325     1.512912
 C     2.907306    -0.686651     0.369521
 O     2.309243     1.358902    -1.164649
 O     0.989637     1.209601     1.031117
 P     1.473963     0.278578    -0.249151
 P    -1.970670    -0.716982     0.322495
 C     0.340085    -2.643786    -0.585439
 O     0.676495    -3.678577    -0.216768
 H    -3.162656     0.739175     1.838209
 H    -1.397661     0.960096     1.945939
 C    -2.309865     2.059726     0.329858
 H    -1.313518     2.216381    -0.110374
 H    -2.985067     1.853369    -0.518157
 C    -2.760729     3.322317     1.048415
 H    -2.133698     3.479662     1.944661
 H    -3.790550     3.185447     1.427454
 C    -2.703260     4.564908     0.171403
 H    -1.670165     4.694394    -0.197405
 H    -3.320374     4.399740    -0.729379
 C    -3.155763     5.830001     0.881695
 H    -3.100086     6.709791     0.222830
 H    -2.530419     6.036349     1.765458
 H    -4.197232     5.741816     1.230984
 C    -4.640484    -1.110084     0.290700
 H    -4.468540    -0.937418     1.368092
 C    -5.096912    -2.542866     0.105056
 H    -4.337199    -3.228892     0.504408
 H    -5.235537    -2.760840    -0.964835
 H    -6.049147    -2.723268     0.626972
 C    -5.626930    -0.085401    -0.231190
 H    -5.263034     0.937216    -0.052228
 H    -5.767249    -0.213298    -1.315252
 H    -6.603862    -0.197174     0.262953
 C    -1.606444    -1.774731     2.836745
 H    -2.000215    -0.857621     3.314803
 C    -0.089050    -1.721434     2.857141
 H     0.287040    -0.832513     2.330898
 H     0.330725    -2.616674     2.374299
 H     0.273738    -1.682056     3.895508
 C    -2.157848    -2.977622     3.574173
 H    -3.256650    -2.983382     3.535140
 H    -1.791930    -3.904521     3.107193
 H    -1.843102    -2.966254     4.628149
 H     2.562797    -1.182315     1.293608
 H     3.003759    -1.492558    -0.377606
 C     4.257845    -0.008826     0.553741
 H     4.512563     0.531270    -0.371815
 H     4.207866     0.755372     1.345644
 C     5.361438    -1.000320     0.897617
 H     5.423472    -1.767314     0.104235
 H     5.091839    -1.548083     1.819372
 C     6.725240    -0.348543     1.078395
 H     6.985630     0.202146     0.157206
 H     6.657798     0.416355     1.872614
 C     7.828927    -1.338449     1.413867
 H     8.801023    -0.837774     1.538653
 H     7.943162    -2.093155     0.619160
 H     7.610450    -1.878768     2.349130
 C     1.787498     1.947432    -2.359251
 H     1.051779     1.243642    -2.782537
 C     2.950383     2.107015    -3.314652
 H     3.415796     1.131351    -3.515527
 H     3.715051     2.775188    -2.888412
 H     2.610058     2.533317    -4.270012
 C     1.090097     3.253086    -2.036543
 H     0.232148     3.078052    -1.371830
 H     1.782599     3.954054    -1.544460
 H     0.712012     3.725767    -2.955370
 C     1.817272     2.150878     1.720399
 H     2.730163     2.322333     1.125605
 C     2.178106     1.590561     3.083487
 H     2.703738     0.629222     2.996714
 H     1.266997     1.426482     3.679357
 H     2.828302     2.288471     3.632481
 C     1.055928     3.457202     1.822217
 H     0.800934     3.838187     0.824459
 H     0.121384     3.312787     2.385210
 H     1.658067     4.217641     2.341787
