  48
scf done:    -1375.812783
 C    -1.188834    -2.567469    -0.307179
 H    -1.647076    -2.976925     0.599334
 H    -1.879628    -2.524072    -1.155494
 C     0.205180    -2.830745    -0.558213
 H     0.766149    -3.434442     0.163454
 H     0.535525    -2.977109    -1.591881
 H    -0.290583    -0.525245    -1.625630
Ir    -0.051622    -0.763491    -0.010229
 C    -3.317857     0.447884    -0.443368
 C    -1.985238     1.505674     1.901019
 C    -1.306805     2.525654    -0.668875
 C     2.398139     1.924686    -0.217966
 C     3.396363    -0.704809     0.511820
 C     2.607490    -0.193355    -2.178696
 P     2.063574     0.103987    -0.455733
 P    -1.631987     0.936564     0.191875
 C     0.223880    -1.009053     1.859674
 O     0.400198    -1.112831     2.994098
 H    -3.478308    -0.524704     0.054355
 C    -4.449742     1.394607    -0.063461
 H    -5.402079     1.026570    -0.478272
 H    -4.581170     1.482939     1.024356
 H    -4.292953     2.406444    -0.471424
 C    -3.270006     0.206936    -1.947569
 H    -2.435479    -0.454705    -2.219494
 H    -4.209074    -0.255951    -2.289885
 H    -3.150778     1.152878    -2.500706
 H    -2.400317     0.666097     2.477679
 H    -1.039434     1.801737     2.376705
 H    -2.683908     2.354337     1.933876
 H    -2.172173     3.205598    -0.642182
 H    -0.454894     3.018590    -0.179752
 H    -1.031476     2.318626    -1.712167
 H     1.652675     2.388475    -0.888617
 C     2.071956     2.327234     1.214744
 H     2.074985     3.423345     1.325194
 H     1.085099     1.947937     1.518532
 H     2.814606     1.924942     1.922361
 C     3.786470     2.394044    -0.633555
 H     4.008917     2.170380    -1.686849
 H     3.873803     3.485292    -0.505518
 H     4.572324     1.933938    -0.013870
 H     3.223798    -0.539555     1.585041
 H     3.330732    -1.786573     0.326928
 H     4.402003    -0.349624     0.240820
 H     3.669763     0.042738    -2.339150
 H     2.428079    -1.252935    -2.407846
 H     1.984424     0.406470    -2.857415
