  82
scf done:    -2220.746698
 C    -0.333908    -2.557681    -1.609145
 H    -0.945832    -3.311550    -1.102195
 H    -0.700142    -2.311920    -2.611036
 C     1.078585    -2.536448    -1.346476
 H     1.503237    -3.254718    -0.638995
 H     1.764736    -2.267972    -2.155441
 H     0.411985    -0.140192    -1.894056
Ir     0.149085    -0.824028    -0.420691
 C    -1.335995     2.390448    -0.920616
 C    -3.041373     0.241348    -1.602763
 C    -2.498872     0.861272     1.228870
 C     1.708319     2.055652     1.118274
 C     3.126944    -0.407200     1.517712
 C     3.115384     0.816069    -1.144747
 P     1.994638     0.416296     0.289672
 P    -1.663495     0.641571    -0.420362
 C    -0.272453    -1.648714     1.245080
 O    -0.591916    -2.121201     2.247690
 H    -0.713954     2.823657    -0.121777
 C    -0.656364     2.554292    -2.269085
 H    -1.267828     2.145540    -3.087963
 H     0.308259     2.027503    -2.293716
 H    -2.297692     2.928496    -0.900053
 H    -0.480890     3.618968    -2.488203
 H    -2.523979    -0.063927    -2.528373
 H    -3.582927     1.174534    -1.824834
 C    -4.030969    -0.811362    -1.183756
 C    -5.388133    -0.632125    -1.481106
 H    -5.704052     0.270956    -2.010496
 C    -3.650639    -1.967584    -0.492462
 H    -2.594164    -2.126591    -0.268246
 C    -6.339653    -1.571652    -1.092222
 H    -7.393022    -1.407754    -1.332926
 C    -4.602381    -2.904480    -0.093070
 H    -4.282973    -3.794819     0.454171
 C    -5.950733    -2.711111    -0.388638
 H    -6.695549    -3.446130    -0.074373
 H    -1.691565     1.213374     1.891462
 H    -2.751426    -0.156141     1.562251
 C    -3.695170     1.760052     1.300857
 C    -4.990695     1.230254     1.243020
 H    -5.125032     0.149237     1.169315
 C    -3.552507     3.148811     1.431483
 H    -2.551812     3.580675     1.516181
 C    -6.106156     2.063857     1.280946
 H    -7.106241     1.626246     1.231198
 C    -4.666434     3.984247     1.471859
 H    -4.531221     5.063606     1.576572
 C    -5.949439     3.444752     1.388119
 H    -6.824328     4.098447     1.419329
 H     0.770465     1.913784     1.679784
 C     2.777706     2.649468     2.024754
 H     3.734098     2.798412     1.506052
 H     2.963643     2.014705     2.903226
 H     1.463762     2.749803     0.297290
 H     2.449351     3.631417     2.399990
 H     2.611464    -0.313344     2.486299
 H     4.052114     0.186538     1.585299
 C     3.416264    -1.850778     1.236141
 C     4.363343    -2.237122     0.279621
 H     4.935401    -1.477535    -0.257490
 C     2.721910    -2.856271     1.919082
 H     1.984882    -2.580657     2.676226
 C     4.593469    -3.581895    -0.002034
 H     5.334540    -3.857512    -0.756114
 C     2.948946    -4.201902     1.641368
 H     2.388894    -4.966813     2.184512
 C     3.882466    -4.571137     0.674243
 H     4.058588    -5.625975     0.451620
 H     2.425309     1.114302    -1.946282
 H     3.534398    -0.153922    -1.452099
 C     4.163555     1.859759    -0.927307
 C     5.416312     1.554698    -0.377790
 H     5.671060     0.516643    -0.152522
 C     3.888295     3.199203    -1.237596
 H     2.926639     3.453800    -1.692298
 C     6.346851     2.557520    -0.112847
 H     7.315766     2.295723     0.319081
 C     4.815483     4.203942    -0.974472
 H     4.576698     5.241155    -1.221898
 C     6.046832     3.887999    -0.401089
 H     6.775290     4.674592    -0.191647
