  86
scf done:    -2521.546535
 C     0.607810    -3.342232     0.652775
 H     1.489628    -3.771909     0.167619
 H     0.653327    -3.376045     1.744849
 C    -0.669210    -3.416560     0.001425
 H    -0.742867    -3.910512    -0.972351
 H    -1.580089    -3.500107     0.600914
 H    -0.700014    -1.243213     1.350675
Ir     0.066171    -1.384884    -0.088351
 C     0.959496     1.125561     2.264333
 O     2.966711    -0.264633     1.309681
 O     1.781283     1.402914    -0.319380
 C    -1.244367     0.992571    -2.369408
 O    -3.060693    -0.477236    -1.164847
 O    -1.802094     1.227021     0.333962
 P    -1.524532     0.060709    -0.826470
 P     1.451030     0.191672     0.784371
 C     0.944085    -1.665779    -1.780025
 O     1.442928    -1.835897    -2.799645
 H    -0.035682     1.522449     2.007823
 C     0.908294     0.265921     3.517211
 H     1.907295    -0.112325     3.777240
 H     0.242905    -0.599019     3.374659
 H     1.647056     1.977105     2.385613
 H     0.528674     0.850642     4.368126
 C     3.683779    -1.238096     0.660899
 C     3.980312    -1.119587    -0.693702
 H     3.630748    -0.240735    -1.240602
 C     4.115365    -2.340879     1.395474
 H     3.859129    -2.409417     2.453787
 C     4.702179    -2.122437    -1.352197
 C     4.971269    -2.005945    -2.823536
 H     4.027497    -2.049802    -3.390086
 H     5.452222    -1.045932    -3.067243
 H     5.622818    -2.815380    -3.180655
 C     4.847911    -3.330614     0.749329
 H     5.191028    -4.202257     1.311809
 C     5.134170    -3.227392    -0.612498
 H     5.700581    -4.018487    -1.110292
 C     2.444360     2.584443    -0.123393
 C     3.589300     2.688746     0.666436
 H     3.973858     1.800739     1.170272
 C     1.946943     3.702302    -0.799005
 H     1.062117     3.592772    -1.428492
 C     4.241829     3.920454     0.807827
 C     5.464790     4.019172     1.673105
 H     5.215304     3.842795     2.731865
 H     6.214488     3.264510     1.389544
 H     5.932859     5.010425     1.598823
 C     2.597673     4.923240    -0.664145
 H     2.214016     5.799467    -1.192397
 C     3.734153     5.036280     0.136475
 H     4.237433     6.001097     0.236190
 H    -0.823629     0.228007    -3.043840
 C    -2.401328     1.717566    -3.040167
 H    -2.751731     2.576736    -2.453625
 H    -3.252759     1.039059    -3.188199
 H    -0.401778     1.661977    -2.126242
 H    -2.083674     2.089548    -4.026254
 C    -3.674087    -1.458481    -0.430289
 C    -3.676118    -1.429212     0.962244
 H    -3.167811    -0.614697     1.481804
 C    -4.309447    -2.487210    -1.124672
 H    -4.286270    -2.484389    -2.215539
 C    -4.297219    -2.450911     1.689972
 C    -4.250347    -2.431077     3.190065
 H    -3.214974    -2.548078     3.549056
 H    -4.624038    -1.475626     3.589854
 H    -4.851756    -3.241601     3.624413
 C    -4.941559    -3.494305    -0.404077
 H    -5.440272    -4.307491    -0.936841
 C    -4.931480    -3.482238     0.991154
 H    -5.421582    -4.286264     1.545877
 C    -2.548397     2.364579     0.162275
 C    -3.937984     2.303325     0.095863
 H    -4.431986     1.331997     0.158636
 C    -1.879058     3.587251     0.096512
 H    -0.789874     3.604685     0.166844
 C    -4.687988     3.473185    -0.072350
 C    -6.185005     3.398234    -0.154156
 H    -6.504846     2.724128    -0.963970
 H    -6.612859     3.003072     0.780911
 H    -6.629318     4.386159    -0.337794
 C    -2.622593     4.751691    -0.066081
 H    -2.110804     5.715410    -0.123357
 C    -4.013459     4.696151    -0.157450
 H    -4.586540     5.617213    -0.290450
