 100
scf done:    -2853.214850
 C     0.790596     0.037849    -3.817866
 H     1.218197     0.914803    -4.315716
 H     1.467939    -0.821741    -3.800711
 C    -0.625746    -0.197903    -3.919744
 H    -1.240449     0.508397    -4.487659
 H    -0.980538    -1.229696    -4.001127
 H     0.131542    -1.160360    -1.645088
Ir    -0.141048     0.438161    -1.919766
 C     2.265486    -0.429277     0.667580
 C     3.199082     1.191627    -1.540761
 C     1.677533     2.381586     0.541031
 C    -3.152593     1.651620    -0.645288
 C    -3.340994    -1.054984    -1.375902
 C    -2.072998    -0.275692     1.147894
 P    -2.088097     0.134573    -0.657413
 P     1.676370     0.846858    -0.513723
 C    -0.416717     2.290604    -2.269575
 O    -0.553459     3.421893    -2.449059
 H     3.122506    -0.003503     1.217961
 H     1.453028    -0.590639     1.395196
 C     2.647657    -1.753810     0.023285
 H     1.745385    -2.214837    -0.406795
 H     3.324749    -1.590560    -0.833064
 C     3.306601    -2.706536     1.009600
 H     2.660817    -2.807041     1.897733
 H     4.250043    -2.263270     1.378739
 C     3.583468    -4.089058     0.437175
 H     2.654758    -4.483222    -0.012573
 H     4.301633    -4.005646    -0.397955
 C     4.098813    -5.069875     1.477909
 H     4.296710    -6.061192     1.042994
 H     3.363963    -5.197574     2.288656
 H     5.036217    -4.713234     1.934618
 H     3.350238     0.284155    -2.144096
 H     2.882327     1.973265    -2.247858
 C     4.442570     1.591784    -0.808199
 C     4.751707     2.944464    -0.607614
 H     4.096588     3.712422    -1.027153
 C     5.321291     0.635836    -0.278819
 H     5.121992    -0.426408    -0.436381
 C     5.880152     3.336698     0.107010
 H     6.123409     4.389522     0.260883
 C     6.454894     1.008464     0.438465
 H     7.141513     0.265567     0.848342
 C     6.718296     2.359130     0.628035
 F     7.800061     2.723995     1.314299
 H     2.630922     2.407267     1.091936
 H     1.697114     3.216801    -0.176092
 C     0.519008     2.548286     1.474062
 C    -0.568626     3.356107     1.117283
 H    -0.564261     3.862065     0.149119
 C     0.500433     1.938029     2.735041
 H     1.343072     1.317158     3.048295
 C    -1.649682     3.539659     1.975046
 H    -2.496840     4.170832     1.700795
 C    -0.572482     2.112246     3.606952
 H    -0.587879     1.645669     4.593449
 C    -1.643240     2.902958     3.208541
 F    -2.690655     3.050424     4.022468
 H    -2.466354     2.501134    -0.527020
 H    -3.543164     1.725443    -1.675062
 C    -4.274384     1.761235     0.375645
 H    -4.949475     0.888762     0.320816
 H    -3.848038     1.751166     1.391969
 C    -5.093081     3.035494     0.212953
 H    -5.627798     3.013605    -0.753675
 H    -4.407984     3.901039     0.149619
 C    -6.082043     3.262122     1.347984
 H    -6.750652     2.386473     1.426545
 H    -5.525499     3.298974     2.301750
 C    -6.909698     4.526502     1.186146
 H    -7.608159     4.664961     2.025080
 H    -7.504160     4.499967     0.258768
 H    -6.267395     5.420675     1.138021
 H    -4.317600    -0.796895    -0.937028
 H    -3.372655    -0.796176    -2.445079
 C    -3.065495    -2.511485    -1.180362
 C    -2.194408    -3.206911    -2.029112
 H    -1.743946    -2.685836    -2.874836
 C    -3.628696    -3.202348    -0.100344
 H    -4.318092    -2.683039     0.570684
 C    -1.869328    -4.539637    -1.792713
 H    -1.185171    -5.085133    -2.445182
 C    -3.316934    -4.535160     0.150115
 H    -3.742254    -5.074436     0.998041
 C    -2.428916    -5.185270    -0.696797
 F    -2.108829    -6.456460    -0.455889
 H    -1.800251     0.676870     1.629534
 H    -3.119700    -0.470279     1.440214
 C    -1.206965    -1.368868     1.717113
 C    -0.663735    -2.414699     0.967150
 H    -0.785208    -2.426716    -0.114210
 C    -0.994935    -1.380408     3.103841
 H    -1.414299    -0.576462     3.712943
 C     0.043789    -3.450210     1.572712
 H     0.452303    -4.273569     0.984542
 C    -0.271436    -2.393969     3.725390
 H    -0.101374    -2.400507     4.803563
 C     0.236940    -3.424875     2.944899
 F     0.943352    -4.398180     3.526956
