 104
scf done:    -2757.229154
 C     0.637946     0.952134    -3.724706
 H     0.215072     1.555267    -4.532912
 H     1.692851     1.183386    -3.533600
 C     0.166094    -0.393169    -3.523065
 H    -0.597344    -0.795073    -4.195196
 H     0.885145    -1.139869    -3.171183
 H    -1.823044     1.086880    -3.061800
Ir    -0.632677     0.897681    -1.988267
 C     2.488513     1.749513    -0.348817
 O     0.742490     0.148962     0.958113
 O     2.074458    -0.838392    -1.024880
 C    -2.279858    -0.111278     1.048858
 O    -3.727595     0.241873    -1.245612
 O    -2.450715    -1.882264    -0.941035
 P    -2.221833    -0.227505    -0.774773
 P     1.187970     0.494471    -0.603869
 C    -1.016458     2.698371    -1.500605
 O    -1.296949     3.793940    -1.294782
 H     3.266304     1.310706     0.298408
 H     2.961487     1.931933    -1.327700
 C     1.933204     3.037422     0.246670
 H     1.308810     3.552052    -0.499618
 H     1.254705     2.797851     1.084509
 C     3.019034     3.982733     0.739512
 H     3.696025     4.233468    -0.096930
 H     3.648819     3.462720     1.485333
 C     2.462636     5.261716     1.349262
 H     1.834213     5.774252     0.600174
 H     1.779912     4.997650     2.176800
 C     3.538912     6.208637     1.853944
 H     3.104916     7.121247     2.289411
 H     4.213316     6.517473     1.039104
 H     4.159388     5.732240     2.630249
 C     1.531607    -0.427849     1.917254
 C     2.330701     0.349530     2.753726
 H     2.343636     1.434420     2.637725
 C     1.484524    -1.811558     2.078722
 H     0.853723    -2.403312     1.415124
 C     3.101994    -0.271022     3.735049
 H     3.732568     0.343642     4.383184
 C     2.256241    -2.414053     3.066588
 H     2.215600    -3.501039     3.180017
 C     3.083891    -1.659671     3.909255
 C     3.894389    -2.318677     4.987285
 H     3.284183    -2.493547     5.889145
 H     4.750437    -1.697183     5.286337
 H     4.278652    -3.296472     4.661422
 C     3.435745    -0.939055    -1.171287
 C     4.245794    -1.305441    -0.098563
 H     3.798268    -1.487673     0.879213
 C     3.997095    -0.714550    -2.428476
 H     3.344307    -0.440018    -3.260284
 C     5.619797    -1.433883    -0.292783
 H     6.248976    -1.717231     0.555486
 C     5.370713    -0.847129    -2.603386
 H     5.801223    -0.665803    -3.592175
 C     6.209515    -1.207961    -1.540869
 C     7.687460    -1.371538    -1.747536
 H     7.914521    -2.327544    -2.248059
 H     8.231395    -1.362428    -0.792417
 H     8.096977    -0.570076    -2.380619
 H    -3.230804    -0.552961     1.389758
 H    -1.469408    -0.775033     1.389654
 C    -2.059662     1.288792     1.601271
 H    -1.251692     1.772094     1.031200
 H    -2.959992     1.905698     1.441077
 C    -1.675415     1.287878     3.073439
 H    -0.828073     0.594177     3.216250
 H    -2.504264     0.882811     3.681920
 C    -1.280307     2.662978     3.592161
 H    -0.478253     3.067800     2.948328
 H    -2.129926     3.358943     3.477217
 C    -0.812971     2.648530     5.038364
 H    -0.527595     3.653187     5.386078
 H     0.061306     1.988974     5.164158
 H    -1.602809     2.276033     5.710464
 C    -4.877909    -0.035788    -0.550796
 C    -5.535435     1.013003     0.090499
 H    -5.108190     2.016189     0.034690
 C    -5.410163    -1.324452    -0.509885
 H    -4.885780    -2.131293    -1.021789
 C    -6.718650     0.767280     0.780785
 H    -7.225777     1.596364     1.282257
 C    -6.593031    -1.552430     0.189136
 H    -7.003077    -2.565933     0.220578
 C    -7.269702    -0.518132     0.846232
 C    -8.562701    -0.770981     1.566376
 H    -8.692617    -0.084438     2.415763
 H    -8.617224    -1.800796     1.948318
 H    -9.425485    -0.625641     0.894641
 C    -1.541488    -2.799526    -0.490192
 C    -1.828841    -3.537242     0.658638
 H    -2.762969    -3.347891     1.191209
 C    -0.353920    -3.030940    -1.184892
 H    -0.143623    -2.441800    -2.075494
 C    -0.928079    -4.503394     1.103734
 H    -1.162392    -5.076205     2.005239
 C     0.539826    -3.990752    -0.722434
 H     1.475745    -4.146696    -1.265846
 C     0.273166    -4.745440     0.427533
 C     1.254487    -5.772489     0.914193
 H     0.968817    -6.168333     1.899183
 H     2.267241    -5.347464     0.997501
 H     1.320193    -6.625344     0.219130
