 100
scf done:    -2456.418091
 C     1.705722    -1.880308    -2.512333
 H     2.066130    -1.364013    -3.409440
 H     2.493287    -2.443047    -2.001627
 C     0.362470    -2.394079    -2.517036
 H    -0.251944    -2.252987    -3.412120
 H     0.149085    -3.335944    -2.002023
 H     0.875412    -1.849238    -0.101320
Ir     0.467928    -0.704831    -1.195674
 C     2.732992    -0.314829     1.423914
 C     3.204415     1.555038    -0.699266
 C     0.932472     2.082988     0.928925
 C    -2.322193     1.078445     0.002219
 C    -3.003633    -1.491188    -1.011258
 C    -1.575214    -1.510359     1.532716
 P    -1.636557    -0.635310    -0.093789
 P     1.821064     0.663947     0.149650
 C     0.063003     0.637542    -2.495121
 O    -0.166997     1.471336    -3.256860
 H     3.233735     0.339066     2.151835
 H     1.974718    -0.905272     1.958138
 C     3.745942    -1.247660     0.774719
 H     3.247583    -1.808354    -0.032537
 H     4.541920    -0.654644     0.293706
 C     4.359321    -2.223481     1.768354
 H     3.554238    -2.820060     2.235028
 H     4.836680    -1.664461     2.594519
 C     5.379857    -3.159733     1.136543
 H     4.898140    -3.708550     0.308183
 H     6.179936    -2.558958     0.669045
 C     5.987130    -4.145944     2.120947
 H     6.719166    -4.808536     1.634682
 H     5.212265    -4.783839     2.576122
 H     6.505181    -3.623934     2.941825
 C     3.480037     1.159324    -2.012763
 H     2.851698     0.383112    -2.453331
 C     4.007735     2.549693    -0.091620
 C     3.791089     3.081275     1.297286
 H     3.516585     2.299707     2.016014
 H     2.976073     3.821928     1.314354
 H     4.702260     3.573999     1.664520
 C     4.525668     1.719855    -2.741229
 H     4.716688     1.389107    -3.764609
 C     5.053878     3.098813    -0.843410
 H     5.680520     3.866825    -0.381255
 C     5.317562     2.698137    -2.150576
 H     6.144291     3.151998    -2.702656
 C     0.579973     3.072807    -0.004298
 H     0.901154     2.962291    -1.043463
 C     0.508923     2.220926     2.266355
 C     0.837748     1.239114     3.354100
 H     1.912088     1.238363     3.590244
 H     0.559732     0.211383     3.084157
 H     0.301694     1.498151     4.276720
 C    -0.173639     4.182813     0.353457
 H    -0.432729     4.931381    -0.398482
 C    -0.257054     3.347915     2.604713
 H    -0.589478     3.456161     3.640902
 C    -0.601811     4.320516     1.672735
 H    -1.201786     5.181606     1.976037
 H    -1.685120     1.647863     0.694395
 H    -2.056724     1.470004    -0.994095
 C    -3.801001     1.326752     0.245082
 H    -4.392652     0.792358    -0.516576
 H    -4.116575     0.915976     1.215596
 C    -4.134769     2.812238     0.208225
 H    -3.814622     3.233543    -0.762150
 H    -3.532333     3.339115     0.970678
 C    -5.610702     3.110319     0.429113
 H    -6.205077     2.580977    -0.336390
 H    -5.925091     2.682047     1.397740
 C    -5.936814     4.594646     0.396505
 H    -7.009081     4.780886     0.560354
 H    -5.666223     5.040941    -0.573987
 H    -5.381101     5.142484     1.174828
 C    -2.875588    -1.440623    -2.406199
 H    -1.974736    -0.990263    -2.824508
 C    -4.163545    -2.079729    -0.451941
 C    -4.459592    -2.166009     1.018851
 H    -4.280665    -1.214412     1.534056
 H    -3.834952    -2.919704     1.521151
 H    -5.512327    -2.439890     1.174346
 C    -3.845258    -1.959069    -3.257465
 H    -3.710620    -1.897012    -4.339671
 C    -5.116020    -2.617093    -1.329772
 H    -6.009149    -3.081321    -0.902454
 C    -4.972029    -2.564732    -2.712114
 H    -5.742822    -2.992197    -3.358024
 C    -1.158504    -2.843359     1.362791
 H    -0.951424    -3.200920     0.351050
 C    -1.828090    -1.038709     2.836317
 C    -2.366821     0.321594     3.171848
 H    -3.462297     0.346174     3.050903
 H    -1.949331     1.122381     2.554037
 H    -2.159793     0.565057     4.222827
 C    -0.994352    -3.707013     2.435785
 H    -0.677153    -4.737738     2.262621
 C    -1.625871    -1.922111     3.910661
 H    -1.808194    -1.552659     4.923701
 C    -1.219964    -3.236997     3.728908
 H    -1.079170    -3.891532     4.592298
