 104
scf done:    -2757.231914
 C     0.900560    -1.681506    -3.221841
 H     1.548466    -1.081867    -3.869986
 H     1.315852    -2.664163    -2.980605
 C    -0.523168    -1.529900    -3.338311
 H    -0.926658    -0.816669    -4.063711
 H    -1.166367    -2.399017    -3.175531
 H    -0.041427    -2.154986    -0.910166
Ir     0.137282    -0.639429    -1.485885
 C     3.426060    -0.966156    -0.143701
 O     1.876913     1.153892     0.594678
 O     1.438863    -1.081289     1.659545
 C    -1.737495     0.763578     1.215651
 O    -2.994951     0.554287    -1.209619
 O    -2.506658    -1.623084     0.119498
 P    -1.794071    -0.192607    -0.339435
 P     1.706321    -0.426478     0.139821
 C     0.482443     1.090662    -2.267874
 O     0.749362     2.106164    -2.731546
 H     4.037606    -0.665195     0.721515
 H     3.375435    -2.069285    -0.146410
 C     4.011980    -0.454487    -1.449901
 H     3.318896    -0.694646    -2.273075
 H     4.076923     0.645772    -1.415592
 C     5.389615    -1.028378    -1.746499
 H     5.324274    -2.131244    -1.780321
 H     6.075377    -0.793206    -0.912164
 C     5.984554    -0.516733    -3.050849
 H     5.290745    -0.749282    -3.877919
 H     6.043066     0.585530    -3.012350
 C     7.357928    -1.092356    -3.355307
 H     7.760832    -0.703565    -4.302704
 H     7.321668    -2.190776    -3.435564
 H     8.080066    -0.845282    -2.560400
 C     2.830481     1.735924     1.389271
 C     3.055700     1.304473     2.696118
 H     2.472891     0.467513     3.079021
 C     3.500306     2.851346     0.859509
 C     3.188581     3.341601    -0.520619
 H     3.787117     4.228821    -0.766491
 H     3.381692     2.573201    -1.284209
 H     2.123626     3.601684    -0.620167
 C     3.995649     1.961811     3.487810
 H     4.172573     1.620316     4.510309
 C     4.431248     3.494006     1.680750
 H     4.961553     4.365087     1.286515
 C     4.689752     3.056221     2.978847
 H     5.424031     3.579453     3.595056
 C     1.275648    -2.420373     1.942197
 C     0.044413    -3.029020     1.691197
 H    -0.754453    -2.455681     1.224524
 C     2.322364    -3.129550     2.555606
 C     3.644885    -2.499945     2.880739
 H     4.393417    -2.708588     2.098989
 H     3.567817    -1.410218     2.974714
 H     4.042442    -2.902178     3.823556
 C    -0.155766    -4.364715     2.022321
 H    -1.123043    -4.828509     1.816298
 C     2.087847    -4.471781     2.882208
 H     2.889189    -5.035657     3.368172
 C     0.872311    -5.093713     2.616381
 H     0.724743    -6.142251     2.884644
 H    -2.722177     0.787005     1.707117
 H    -1.059649     0.162937     1.847596
 C    -1.167375     2.165812     1.022657
 H    -0.384975     2.138762     0.246510
 H    -1.958733     2.838897     0.655032
 C    -0.547874     2.730398     2.292591
 H     0.221321     2.025962     2.653316
 H    -1.309811     2.787927     3.091070
 C     0.088470     4.097267     2.087458
 H     0.776812     4.039687     1.226701
 H    -0.691923     4.824409     1.800754
 C     0.850765     4.596717     3.303517
 H     1.282256     5.594204     3.129901
 H     1.680284     3.915955     3.552921
 H     0.196351     4.665808     4.187727
 C    -3.833496     1.580704    -0.845289
 C    -4.838794     1.399868     0.103003
 H    -4.960136     0.429421     0.584119
 C    -3.672286     2.804826    -1.515538
 C    -2.580786     2.976521    -2.524301
 H    -1.604352     3.109122    -2.031658
 H    -2.488994     2.089594    -3.167265
 H    -2.757731     3.859645    -3.152977
 C    -5.688604     2.458069     0.419113
 H    -6.472215     2.311746     1.165861
 C    -4.546185     3.844368    -1.185429
 H    -4.435908     4.803396    -1.698985
 C    -5.542305     3.684314    -0.223565
 H    -6.208374     4.516113     0.016229
 C    -3.753658    -1.780144     0.665098
 C    -3.931345    -1.666559     2.043021
 H    -3.068069    -1.447762     2.673840
 C    -4.815805    -2.113017    -0.191438
 C    -4.579817    -2.273152    -1.660919
 H    -5.479142    -2.651025    -2.165146
 H    -4.293612    -1.314883    -2.120278
 H    -3.747605    -2.968880    -1.847951
 C    -5.200829    -1.836860     2.592065
 H    -5.343361    -1.740497     3.670698
 C    -6.076924    -2.281538     0.388003
 H    -6.920913    -2.533748    -0.259513
 C    -6.277944    -2.135019     1.760286
 H    -7.277043    -2.267895     2.181117
