  94
scf done:    -2377.890502
 C    -0.325060    -3.473648     1.803026
 H     0.146135    -4.360687     1.365955
 H     0.136548    -3.160681     2.745023
 C    -1.742381    -3.281447     1.624848
 H    -2.307669    -4.027746     1.056194
 H    -2.320448    -2.832485     2.439083
 H    -0.733765    -0.942845     1.793785
Ir    -0.664235    -1.852700     0.429904
 C     1.991580     0.421387     1.207844
 C     2.762637    -2.225597     0.274290
 C     1.782234    -0.262160    -1.656355
 C    -2.820337    -0.594306    -2.067788
 C    -3.824386    -0.545980     0.675014
 C    -1.946850     1.490918    -0.332871
 P    -2.259268    -0.335378    -0.317956
 P     1.442795    -0.915436     0.074753
 C    -0.600264    -2.931508    -1.144903
 O    -0.553357    -3.561063    -2.109228
 H     1.335066     1.277162     0.992341
 C     1.906084     0.051162     2.678460
 H     2.575981    -0.782956     2.941193
 H     0.882598    -0.248029     2.944794
 H     3.010453     0.729287     0.928033
 H     2.183331     0.914022     3.302361
 H     2.658129    -2.566712     1.315617
 H     2.426298    -3.060961    -0.357934
 C     4.165451    -1.825394    -0.051797
 C     4.712372    -2.098608    -1.312423
 H     4.132306    -2.673703    -2.039341
 C     4.952230    -1.124296     0.872814
 H     4.551273    -0.928599     1.870765
 C     5.990955    -1.653611    -1.641319
 H     6.405106    -1.873835    -2.628133
 C     6.233464    -0.663253     0.558647
 C     7.028866     0.132509     1.552387
 H     8.101321    -0.104964     1.495173
 H     6.923791     1.213493     1.359797
 H     6.689846    -0.051971     2.581564
 C     6.743869    -0.933222    -0.717985
 H     7.746340    -0.586354    -0.983543
 H     2.454106    -0.994427    -2.130005
 H     0.817839    -0.329949    -2.177205
 C     2.345860     1.119377    -1.801375
 C     1.549959     2.160402    -2.290322
 H     0.518561     1.953013    -2.588344
 C     3.676431     1.403365    -1.467557
 H     4.320417     0.596880    -1.111186
 C     2.067142     3.448009    -2.421664
 H     1.436309     4.250075    -2.813642
 C     4.209001     2.689584    -1.580571
 C     5.627939     2.961378    -1.170995
 H     6.240190     2.050235    -1.233205
 H     6.090925     3.736441    -1.799277
 H     5.673066     3.317953    -0.127827
 C     3.384917     3.715238    -2.061804
 H     3.785062     4.727525    -2.167109
 H    -3.416749    -1.521819    -2.032405
 C    -3.564827     0.514078    -2.799166
 H    -2.928029     1.397184    -2.954873
 H    -4.467437     0.840205    -2.265302
 H    -1.905126    -0.863485    -2.619418
 H    -3.875812     0.163208    -3.795732
 H    -4.060805    -1.613311     0.548099
 H    -3.516700    -0.435362     1.725319
 C    -5.001918     0.316753     0.348734
 C    -5.091311     1.632998     0.821302
 H    -4.312233     2.029942     1.477743
 C    -6.032349    -0.170201    -0.463879
 H    -5.975381    -1.201470    -0.826594
 C    -6.169003     2.436855     0.458716
 H    -6.226375     3.464180     0.826875
 C    -7.124248     0.620837    -0.833898
 C    -8.226112     0.057617    -1.684011
 H    -7.848464    -0.702033    -2.383866
 H    -8.995092    -0.427428    -1.059696
 H    -8.727066     0.843396    -2.267580
 C    -7.174016     1.939782    -0.368059
 H    -8.014277     2.580143    -0.650026
 H    -1.353105     1.661239    -1.244219
 H    -2.917457     1.987875    -0.505834
 C    -1.236422     2.127828     0.827681
 C    -1.471704     1.769934     2.161311
 H    -2.173551     0.971754     2.402001
 C    -0.308166     3.141938     0.571727
 H    -0.105309     3.424267    -0.463961
 C    -0.785814     2.406579     3.191313
 H    -0.971291     2.109490     4.226290
 C     0.402726     3.783488     1.592130
 C     1.422542     4.831720     1.254186
 H     2.169028     4.438027     0.546048
 H     0.952876     5.704468     0.772628
 H     1.949610     5.185737     2.151222
 C     0.149642     3.401275     2.912468
 H     0.695279     3.882523     3.728702
