  74
scf done:    -2761.162988
 C     0.058158    -2.160809     3.135243
 H    -0.044743    -1.756046     4.147411
 H    -0.755529    -2.839319     2.859820
 C     1.373150    -2.411808     2.613379
 H     2.247534    -2.187349     3.231590
 H     1.526934    -3.255798     1.935957
 H    -0.074511    -1.814577     0.600175
Ir     0.534547    -0.695132     1.611742
 C    -2.517206     1.078453     2.281336
 O    -0.849980     1.981935     0.320328
 O    -2.297678     0.029629    -0.157282
 C     2.232142     1.508274    -0.662554
 O     3.498279    -0.736726     0.208441
 O     1.729594    -0.953394    -1.565549
 P     1.966073    -0.206276    -0.090452
 P    -1.278523     0.548180     1.045118
 C     1.294109     0.509820     2.921589
 O     1.755458     1.182884     3.726490
 H    -3.121003     0.180759     2.494152
 C    -1.900026     1.630096     3.554857
 H    -1.237764     2.485788     3.352372
 H    -1.300585     0.862458     4.065894
 H    -3.187722     1.803396     1.790630
 H    -2.681376     1.969000     4.250650
 C    -1.731174     2.913649    -0.169556
 C    -1.966295     4.078449     0.560675
 H    -1.473074     4.212239     1.525163
 C    -2.335009     2.726954    -1.414530
 H    -2.131914     1.809354    -1.966670
 C    -2.814030     5.059947     0.052974
 H    -3.013417     5.981275     0.602892
 C    -3.183662     3.704976    -1.924248
 H    -3.670313     3.586415    -2.894094
 C    -3.415004     4.858920    -1.183682
 F    -4.227329     5.794035    -1.672543
 C    -3.131799    -1.047265    -0.150596
 C    -4.133752    -1.061157    -1.123723
 H    -4.213838    -0.216756    -1.809299
 C    -3.009245    -2.113660     0.742188
 H    -2.218127    -2.108614     1.493038
 C    -4.994019    -2.147289    -1.227629
 H    -5.770651    -2.182731    -1.993199
 C    -3.877073    -3.200215     0.643991
 H    -3.796255    -4.047347     1.327541
 C    -4.854027    -3.210061    -0.342003
 F    -5.677971    -4.254640    -0.438415
 H     1.278328     1.791193    -1.135317
 C     2.569085     2.484019     0.451832
 H     3.462597     2.175655     1.014625
 H     1.730053     2.572571     1.155807
 H     3.005953     1.483101    -1.446925
 H     2.764564     3.484367     0.038516
 C     4.618557    -0.410109    -0.513232
 C     5.647894     0.261010     0.148007
 H     5.518962     0.518705     1.200802
 C     4.761254    -0.773745    -1.853966
 H     3.950716    -1.307321    -2.350310
 C     6.820868     0.580693    -0.529309
 H     7.641035     1.102756    -0.033427
 C     5.931610    -0.448715    -2.535553
 H     6.069919    -0.719761    -3.583783
 C     6.946570     0.224912    -1.867056
 F     8.066034     0.533180    -2.520821
 C     0.504319    -1.153974    -2.140948
 C    -0.056887    -0.166013    -2.949771
 H     0.477472     0.773716    -3.099178
 C    -0.152230    -2.373438    -1.964010
 H     0.307909    -3.135100    -1.334122
 C    -1.279598    -0.392125    -3.577962
 H    -1.735775     0.359220    -4.225331
 C    -1.374030    -2.603578    -2.587376
 H    -1.915580    -3.541105    -2.451175
 C    -1.923503    -1.607082    -3.384225
 F    -3.100001    -1.818458    -3.976286
