  64
scf done:    -2381.822004
 C    -0.451823    -3.365671    -1.260191
 H    -1.230733    -3.985875    -0.802472
 H    -0.584339    -3.239303    -2.339011
 C     0.880975    -3.438636    -0.722022
 H     1.061069    -4.104976     0.129062
 H     1.735914    -3.361310    -1.400536
 H     0.655916    -1.097932    -1.688544
Ir     0.019204    -1.529934    -0.233856
 C    -1.769184     0.406717    -2.549437
 C    -3.399207    -0.554119    -0.428050
 C    -1.657914     1.615135     0.060104
 C     1.622253     0.206838     2.411536
 C     3.401490    -0.658992     0.397340
 C     1.714757     1.578549    -0.118241
 P     1.663578    -0.103418     0.604748
 P    -1.676155    -0.017703    -0.772320
 C    -0.667322    -2.070421     1.466202
 O    -1.060184    -2.366140     2.506579
 H    -0.827216     0.878226    -2.862044
 H    -1.877918    -0.539265    -3.097218
 H    -2.622187     1.062603    -2.776848
 C    -3.679574    -1.912344    -0.250755
 H    -2.856152    -2.628767    -0.288641
 C    -4.452560     0.369499    -0.375398
 H    -4.250566     1.437036    -0.496919
 C    -4.983168    -2.349595    -0.029332
 H    -5.216824    -3.406042     0.113725
 C    -5.758736    -0.052269    -0.152062
 H    -6.589790     0.653550    -0.101383
 C    -6.005766    -1.411051     0.017508
 F    -7.253157    -1.818154     0.235191
 C    -1.556255     2.831670    -0.620236
 H    -1.501165     2.855158    -1.709536
 C    -1.715843     1.628969     1.461296
 H    -1.800132     0.684150     2.006296
 C    -1.502813     4.038291     0.075968
 H    -1.403971     4.992719    -0.444158
 C    -1.670777     2.824389     2.168846
 H    -1.718842     2.849123     3.259162
 C    -1.557357     4.017802     1.461637
 F    -1.486482     5.165639     2.133260
 H     1.669709    -0.771038     2.910593
 H     2.471337     0.818877     2.747949
 H     0.672731     0.689697     2.682555
 C     4.451070     0.224785     0.119049
 H     4.247576     1.287518    -0.030507
 C     3.688888    -2.017134     0.580107
 H     2.867870    -2.710920     0.773754
 C     5.761757    -0.235809     0.021095
 H     6.590282     0.438304    -0.203768
 C     4.995282    -2.488202     0.498105
 H     5.233875    -3.544172     0.637055
 C     6.016164    -1.587960     0.215204
 F     7.267037    -2.032521     0.122533
 C     1.739393     2.743042     0.655635
 H     1.725601     2.686730     1.744796
 C     1.724705     1.698484    -1.515500
 H     1.697266     0.792773    -2.127054
 C     1.764230     4.000923     0.056445
 H     1.762278     4.915982     0.651308
 C     1.759483     2.946548    -2.127161
 H     1.770270     3.053145    -3.213579
 C     1.771842     4.085400    -1.328220
 F     1.775446     5.284572    -1.906877
