 104
scf done:    -2757.104392
 C     1.296088    -2.910321    -2.129274
 H     1.827984    -2.713991    -3.067289
 H     1.877785    -3.508936    -1.421369
 C    -0.134882    -3.079439    -2.179557
 H    -0.630642    -3.005055    -3.154118
 H    -0.614835    -3.800673    -1.511018
 H     0.381420    -2.149729     0.116030
Ir     0.321639    -1.213174    -1.227174
 C     2.070731    -0.138754     1.701334
 C     3.565386     0.235478    -0.704897
 C     1.389650     1.960128    -0.111916
 C    -2.048856     1.366333    -0.705153
 C    -3.171165    -1.269060    -0.536747
 C    -1.516274    -0.334141     1.598146
 P    -1.615062    -0.359836    -0.227481
 P     1.840267     0.181516    -0.096916
 C     0.233812    -0.216096    -2.854395
 O     0.159557     0.367873    -3.844852
 H     2.768949     0.621153     2.092600
 H     1.091475     0.030981     2.175572
 C     2.555977    -1.536939     2.041973
 H     1.850444    -2.267141     1.612452
 H     3.530698    -1.730123     1.560774
 C     2.663064    -1.744160     3.546847
 H     1.713033    -1.436830     4.019073
 H     3.435397    -1.069770     3.960862
 C     2.970288    -3.177664     3.953203
 H     2.200184    -3.842306     3.523087
 H     3.925209    -3.493914     3.497390
 C     3.025999    -3.368550     5.460479
 H     3.229045    -4.415110     5.734404
 H     2.072110    -3.077652     5.930411
 H     3.816005    -2.747241     5.912958
 C     4.459604     1.234018    -0.283759
 H     4.113838     2.029224     0.383018
 C     4.028403    -0.749178    -1.575350
 H     3.326733    -1.516303    -1.910367
 C     5.774275     1.237858    -0.717610
 H     6.477750     2.011359    -0.403518
 C     5.351596    -0.759865    -2.018948
 H     5.678205    -1.545407    -2.700686
 C     6.233338     0.236759    -1.589215
 O     7.525741     0.321414    -1.958748
 C     8.042296    -0.643295    -2.832056
 H     7.518147    -0.640220    -3.804038
 H     9.096509    -0.386798    -2.996738
 H     7.984977    -1.659096    -2.402604
 C     1.297345     2.613952    -1.354290
 H     1.606507     2.093649    -2.263902
 C     1.002787     2.667412     1.026513
 H     1.072282     2.205926     2.011968
 C     0.795067     3.898810    -1.454542
 H     0.706845     4.400650    -2.419783
 C     0.482578     3.962919     0.940530
 H     0.175068     4.473434     1.853742
 C     0.356833     4.579059    -0.306763
 O    -0.169573     5.803565    -0.503732
 C    -0.656291     6.513367     0.599859
 H     0.140628     6.734199     1.331873
 H    -1.056469     7.459702     0.214623
 H    -1.468009     5.966306     1.112116
 H    -1.211377     1.990187    -0.354274
 H    -1.968898     1.373915    -1.804583
 C    -3.385673     1.943717    -0.267318
 H    -4.207305     1.382560    -0.742569
 H    -3.527725     1.810250     0.818785
 C    -3.497853     3.423378    -0.612140
 H    -3.383593     3.552851    -1.703598
 H    -2.643010     3.965383    -0.167449
 C    -4.798850     4.067621    -0.156829
 H    -5.649308     3.531585    -0.613672
 H    -4.910495     3.925807     0.933153
 C    -4.884939     5.547927    -0.492415
 H    -5.832739     5.990817    -0.150554
 H    -4.810959     5.715619    -1.578861
 H    -4.064077     6.112578    -0.020449
 C    -4.217142    -1.324262     0.398184
 H    -4.093715    -0.860772     1.380168
 C    -3.357137    -1.880813    -1.777198
 H    -2.537784    -1.864558    -2.499750
 C    -5.406336    -1.969262     0.096778
 H    -6.223073    -2.024855     0.819021
 C    -4.552075    -2.522913    -2.098554
 H    -4.658449    -2.991232    -3.077250
 C    -5.586362    -2.572147    -1.156992
 O    -6.773245    -3.175496    -1.361572
 C    -7.009184    -3.801707    -2.591254
 H    -6.292738    -4.620696    -2.779623
 H    -8.022040    -4.221185    -2.541823
 H    -6.959548    -3.087871    -3.432491
 C    -1.347442    -1.563708     2.261384
 H    -1.387410    -2.491676     1.685778
 C    -1.450286     0.833200     2.357006
 H    -1.574402     1.806862     1.881457
 C    -1.095762    -1.616897     3.619404
 H    -0.950321    -2.568637     4.133928
 C    -1.181406     0.796599     3.729862
 H    -1.118384     1.733440     4.284168
 C    -0.987339    -0.432108     4.365539
 O    -0.679746    -0.580875     5.668887
 C    -0.498485     0.564356     6.453320
 H    -1.420139     1.169402     6.516554
 H    -0.232171     0.218269     7.459878
 H     0.317961     1.199315     6.065927
