  76
scf done:    -2142.195122
 C     0.864030    -3.308297     1.518179
 H     1.493955    -4.018383     0.971870
 H     1.290465    -3.004005     2.479293
 C    -0.566914    -3.413478     1.396510
 H    -0.985992    -4.200957     0.760990
 H    -1.188959    -3.184738     2.267763
 H    -0.052602    -0.923895     1.806089
Ir     0.119177    -1.665234     0.343710
 C     1.916864     1.365489     1.016331
 C     3.482881    -1.040829     0.757915
 C     2.477981     0.285633    -1.581986
 C    -2.584957    -1.074071    -1.829298
 C    -3.244886    -1.036686     0.947155
 C    -1.999706     1.257690    -0.411549
 P    -1.864238    -0.574408    -0.220522
 P     1.932204    -0.223745     0.120799
 C     0.357123    -2.527508    -1.337059
 O     0.516080    -3.015073    -2.370470
 H     1.092680     1.984874     0.640214
 H     1.720089     1.165914     2.078543
 H     2.870453     1.902444     0.905868
 H     3.564668    -1.977601     0.185608
 H     3.230333    -1.330948     1.789280
 C     4.746925    -0.242955     0.701545
 C     5.108177     0.609062     1.754424
 H     4.474358     0.657281     2.643959
 C     5.589794    -0.303885    -0.416888
 H     5.337470    -0.977126    -1.240772
 C     6.263338     1.384553     1.686339
 H     6.526480     2.038999     2.521002
 C     6.745724     0.470458    -0.488504
 H     7.388974     0.403547    -1.369344
 C     7.085162     1.321909     0.561816
 H     7.992241     1.928339     0.508005
 H     2.707954    -0.651442    -2.112683
 H     3.416880     0.852790    -1.481296
 C     1.459368     1.079752    -2.339999
 C     1.371443     2.469118    -2.182223
 H     2.062325     2.977771    -1.505383
 C     0.574646     0.455550    -3.229316
 H     0.639632    -0.624499    -3.378700
 C     0.425973     3.211676    -2.886613
 H     0.381941     4.295527    -2.753865
 C    -0.368985     1.197214    -3.937801
 H    -1.041951     0.692084    -4.635257
 C    -0.451939     2.578516    -3.765645
 H    -1.189880     3.160296    -4.322754
 H    -2.710341    -2.166187    -1.834611
 H    -3.554421    -0.589051    -2.017261
 H    -1.880034    -0.802275    -2.625773
 H    -2.880912    -0.835105     1.964498
 H    -3.305435    -2.132136     0.857112
 C    -4.569018    -0.388319     0.692717
 C    -5.524847    -1.002723    -0.127525
 H    -5.312446    -1.988863    -0.549505
 C    -4.873351     0.866516     1.239427
 H    -4.144466     1.361656     1.886747
 C    -6.741441    -0.381263    -0.401910
 H    -7.473667    -0.881323    -1.040668
 C    -6.088544     1.489977     0.966115
 H    -6.304443     2.467542     1.404128
 C    -7.026847     0.870172     0.141581
 H    -7.980778     1.358292    -0.071352
 H    -3.059319     1.484346    -0.629244
 H    -1.442584     1.476040    -1.337249
 C    -1.509330     2.160625     0.686191
 C    -1.192319     3.488971     0.366622
 H    -1.289685     3.820485    -0.669886
 C    -1.369975     1.755731     2.017921
 H    -1.567542     0.720819     2.296158
 C    -0.746280     4.378902     1.339460
 H    -0.500491     5.407110     1.062276
 C    -0.927452     2.645383     2.996761
 H    -0.819482     2.299539     4.027732
 C    -0.611206     3.959499     2.663196
 H    -0.258827     4.654441     3.429012
