  52
scf done:    -1676.553552
 C    -0.801534    -2.670835    -1.145132
 H    -1.299029    -3.331614    -0.428887
 H    -1.406545    -2.451215    -2.028320
 C     0.626125    -2.699628    -1.251977
 H     1.185909    -3.393990    -0.617642
 H     1.096877    -2.510786    -2.220927
 H    -0.095884    -0.307509    -1.794317
Ir    -0.005693    -0.871375    -0.260590
 C    -2.162694     1.844987    -1.182826
 O    -3.200257    -0.607109    -0.403710
 O    -2.386534     1.081640     1.339071
 C     1.983114     1.971513     0.975345
 O     3.259330    -0.245755     0.406957
 O     2.262848     1.024070    -1.603173
 P     1.860287     0.460918    -0.107447
 P    -1.917313     0.374973    -0.085403
 C     0.117221    -1.644867     1.493522
 O     0.208128    -2.141839     2.526933
 H    -2.340774     1.363416    -2.161814
 C    -3.350581     2.729845    -0.815734
 H    -3.409542     3.574108    -1.520913
 H    -4.312232     2.204268    -0.853275
 H    -3.229029     3.139144     0.197399
 C    -0.887526     2.675892    -1.281858
 H    -0.025551     2.076784    -1.604566
 H    -1.031438     3.488537    -2.011320
 H    -0.650196     3.142793    -0.312502
 C    -4.559984    -0.292815    -0.220385
 H    -4.712353     0.417375     0.608072
 H    -5.000095     0.128596    -1.139523
 H    -5.087772    -1.228813     0.015204
 C    -2.349509     0.326348     2.529598
 H    -2.802136    -0.670162     2.395250
 H    -1.316856     0.195975     2.889230
 H    -2.922919     0.878633     3.287118
 H     1.635309     2.777884     0.305023
 C     1.006207     1.868114     2.141122
 H     1.056220     2.779335     2.757625
 H    -0.028167     1.742389     1.796237
 H     1.255660     1.013218     2.790601
 C     3.388609     2.296067     1.472915
 H     4.120521     2.408652     0.663227
 H     3.367859     3.239005     2.042814
 H     3.755752     1.500664     2.136155
 C     3.570295    -1.581830     0.080373
 H     2.881597    -2.283553     0.575058
 H     3.524656    -1.760425    -1.005830
 H     4.594260    -1.767622     0.433941
 C     3.435807     1.753435    -1.872858
 H     3.355110     2.798646    -1.528067
 H     4.319303     1.289593    -1.404874
 H     3.573849     1.758768    -2.963249
