  84
scf done:    -1847.190936
 C    -1.413195    -1.662277    -2.677702
 H    -1.720954    -2.711530    -2.611732
 H    -2.190528    -1.012181    -3.092119
 C    -0.030488    -1.370967    -2.962256
 H     0.665267    -2.205334    -3.102901
 H     0.208444    -0.503808    -3.587070
 H    -0.917297     0.578627    -1.551023
Ir    -0.460466    -0.869085    -0.915801
 C    -2.189737     1.312279     1.372135
 C    -3.836456    -0.568575    -0.022717
 C    -2.128241    -1.442664     2.155794
 C     2.812969    -0.973344     0.223922
 C     2.307673     1.149028    -1.657596
 C     1.429430     1.482810     1.086747
 P     1.504376     0.230627    -0.275504
 P    -2.125253    -0.383871     0.643337
 C    -0.020603    -2.575081    -0.190078
 O     0.215723    -3.603493     0.274360
 H    -3.101476     1.398154     1.987178
 H    -1.335090     1.370522     2.067358
 C    -2.120554     2.447701     0.362208
 H    -1.284913     2.260018    -0.332195
 H    -3.025304     2.443009    -0.270251
 C    -1.954885     3.815830     1.008113
 H    -1.079655     3.791856     1.684054
 H    -2.822150     4.034581     1.657415
 C    -1.772667     4.941268    -0.000488
 H    -0.911854     4.701809    -0.650342
 H    -2.649381     4.973516    -0.671056
 C    -1.565444     6.302467     0.643172
 H    -1.434890     7.094138    -0.110063
 H    -0.671162     6.306527     1.287666
 H    -2.424584     6.582047     1.274063
 H    -4.564445    -0.137717     0.687155
 H    -3.860006     0.056698    -0.930961
 C    -4.198415    -2.004964    -0.374639
 H    -4.260406    -2.607592     0.548067
 H    -3.376255    -2.436179    -0.968363
 C    -5.507092    -2.114486    -1.141011
 H    -6.349199    -1.695655    -0.566368
 H    -5.452613    -1.566327    -2.095119
 H    -5.750621    -3.162483    -1.373216
 H    -2.111270    -2.483592     1.791410
 H    -1.140633    -1.284190     2.623016
 C    -3.245485    -1.251913     3.172457
 H    -4.223492    -1.381600     2.678750
 H    -3.234258    -0.217411     3.553927
 C    -3.138266    -2.221105     4.340816
 H    -3.184965    -3.266338     3.995982
 H    -2.183948    -2.095180     4.876819
 H    -3.951827    -2.071499     5.066958
 H     2.361653    -1.578476     1.028031
 H     2.880438    -1.654066    -0.642703
 C     4.198900    -0.498287     0.635090
 H     4.608288     0.196793    -0.117986
 H     4.135309     0.073563     1.575924
 C     5.175531    -1.651935     0.826885
 H     5.251503    -2.224159    -0.115549
 H     4.763770    -2.358604     1.570218
 C     6.564880    -1.208938     1.263794
 H     6.967968    -0.498434     0.520205
 H     6.483074    -0.638377     2.206142
 C     7.536763    -2.363281     1.447534
 H     8.530975    -2.012269     1.762950
 H     7.665442    -2.929532     0.511072
 H     7.175993    -3.071256     2.210951
 H     3.276884     1.552195    -1.318321
 H     2.525919     0.386080    -2.423903
 C     1.450955     2.255360    -2.258669
 H     1.196251     2.996638    -1.480222
 H     0.490918     1.820294    -2.578251
 C     2.129701     2.956553    -3.424557
 H     3.078990     3.425844    -3.118837
 H     2.359463     2.245478    -4.234222
 H     1.488697     3.745289    -3.847120
 H     0.467389     1.995858     0.938500
 H     1.309702     0.897460     2.015930
 C     2.532589     2.524851     1.236514
 H     2.622707     3.100506     0.300969
 H     3.508535     2.038637     1.384080
 C     2.261082     3.483024     2.387385
 H     1.310027     4.020582     2.241727
 H     2.191431     2.946654     3.347378
 H     3.057714     4.236427     2.483137
