  86
scf done:    -2521.542604
 C     0.089817    -2.035965    -2.958889
 H    -0.516422    -2.942124    -2.852903
 H    -0.201532    -1.420117    -3.814271
 C     1.465463    -2.067503    -2.551989
 H     1.877600    -2.989064    -2.129453
 H     2.203223    -1.475135    -3.100060
 H     0.684909     0.335592    -2.165488
Ir     0.339577    -0.888512    -1.139645
 C    -1.741156     1.908054    -1.700087
 O    -3.091652    -0.098097    -0.940477
 O    -1.499942     0.876556     0.862854
 C     1.677646    -0.334640     2.060603
 O     3.403290    -0.630334    -0.103773
 O     2.275686     1.591763     0.347093
 P     1.912906    -0.029552     0.272795
 P    -1.510288     0.385926    -0.734952
 C    -0.013600    -2.371162     0.039829
 O    -0.177969    -3.247154     0.762724
 H    -0.870200     2.542720    -1.490127
 C    -1.874181     1.636936    -3.189975
 H    -2.755376     1.015418    -3.406025
 H    -0.984082     1.116878    -3.574092
 H    -2.639771     2.406351    -1.305734
 H    -1.977582     2.584391    -3.739501
 C    -3.708815    -1.258221    -0.556723
 C    -3.139812    -2.508566    -0.785154
 H    -2.185588    -2.563054    -1.307836
 C    -4.982508    -1.127479     0.023819
 C    -5.630298     0.217117     0.143783
 H    -5.016386     0.917377     0.726739
 H    -5.768321     0.670826    -0.850506
 H    -6.613645     0.135432     0.626091
 C    -3.800013    -3.658007    -0.355013
 H    -3.341710    -4.635551    -0.520828
 C    -5.622126    -2.298017     0.439472
 H    -6.609628    -2.216091     0.901958
 C    -5.037468    -3.553507     0.273558
 H    -5.559880    -4.449015     0.617205
 C    -2.528515     1.365224     1.621735
 C    -2.975089     2.676775     1.467517
 H    -2.507424     3.311570     0.713846
 C    -3.060077     0.519904     2.610731
 C    -2.540637    -0.874767     2.777399
 H    -1.448101    -0.880157     2.908671
 H    -2.998778    -1.361833     3.648304
 H    -2.755386    -1.495184     1.893250
 C    -3.995471     3.160916     2.284433
 H    -4.349756     4.186637     2.159348
 C    -4.076908     1.034884     3.419557
 H    -4.507042     0.392083     4.192236
 C    -4.551352     2.336365     3.259557
 H    -5.351109     2.707983     3.903844
 H     1.690623    -1.430452     2.183727
 C     2.557939     0.368164     3.082321
 H     2.622908     1.444584     2.869483
 H     3.579323    -0.033414     3.101253
 H     0.622669    -0.032242     2.182722
 H     2.128179     0.245423     4.088289
 C     4.526774    -0.604954     0.683261
 C     5.221238     0.582654     0.903531
 H     4.836627     1.506525     0.471094
 C     4.967548    -1.827827     1.211376
 C     4.207942    -3.087170     0.924117
 H     4.746802    -3.967547     1.299254
 H     3.210256    -3.077966     1.392083
 H     4.039961    -3.206871    -0.156792
 C     6.368422     0.569383     1.693194
 H     6.910647     1.499981     1.875713
 C     6.124085    -1.811511     1.996211
 H     6.485641    -2.752783     2.419247
 C     6.818811    -0.628284     2.244931
 H     7.718230    -0.644937     2.864405
 C     1.643937     2.627666    -0.280918
 C     0.735851     3.390109     0.452107
 H     0.502321     3.087640     1.474249
 C     1.991951     2.961681    -1.599554
 C     3.017319     2.163048    -2.343252
 H     3.977761     2.155305    -1.804631
 H     2.705464     1.113275    -2.451587
 H     3.186742     2.579185    -3.345301
 C     0.148153     4.512931    -0.125181
 H    -0.555812     5.115664     0.453381
 C     1.370679     4.082974    -2.160375
 H     1.622233     4.360298    -3.187529
 C     0.460852     4.856103    -1.439447
 H     0.000992     5.730553    -1.904968
