  76
scf done:    -3980.052092
 C    -0.314206    -3.108703    -1.815223
 H    -1.066917    -3.839522    -1.498180
 H    -0.430334    -2.795117    -2.857353
 C     1.007093    -3.216880    -1.256294
 H     1.198296    -4.020077    -0.536139
 H     1.875906    -2.978661    -1.877195
 H     0.660112    -0.774073    -1.810496
Ir     0.039541    -1.469788    -0.463015
 C    -2.024146     0.602182    -2.470029
 C    -3.404360    -0.767748    -0.365237
 C    -1.852201     1.455464     0.403753
 C     1.645383     0.368435     2.305236
 C     3.410735    -0.840869     0.414056
 C     1.886144     1.462424    -0.374930
 P     1.716089    -0.136485     0.503974
 P    -1.770738     0.002912    -0.719072
 C    -0.710615    -2.389393     1.037136
 O    -1.197356    -2.967267     1.905171
 H    -1.988220    -0.373911    -2.987542
 C    -3.380181     1.234901    -2.762575
 H    -3.454544     1.457399    -3.838980
 H    -4.210735     0.565020    -2.501251
 H    -3.535436     2.180949    -2.223449
 C    -0.851105     1.424839    -2.989580
 H     0.102039     0.917756    -2.791230
 H    -0.947196     1.560530    -4.078146
 H    -0.792701     2.426158    -2.538809
 C    -3.611819    -2.096455    -0.753155
 H    -2.784587    -2.653222    -1.198034
 C    -4.463145    -0.068396     0.227469
 H    -4.329920     0.970033     0.537894
 C    -4.843633    -2.715101    -0.565373
 H    -5.001576    -3.751567    -0.867514
 C    -5.697148    -0.678599     0.432432
 H    -6.519280    -0.134644     0.900277
 C    -5.881660    -2.000889     0.031214
Cl    -7.413830    -2.764898     0.282894
 C    -1.765057     1.180632     1.777466
 H    -1.677148     0.143367     2.112777
 C    -1.966246     2.790112     0.004051
 H    -2.035975     3.048046    -1.051375
 C    -1.783430     2.198830     2.722759
 H    -1.717298     1.975868     3.788951
 C    -1.975390     3.824903     0.938768
 H    -2.055098     4.864742     0.617457
 C    -1.877466     3.525234     2.294674
Cl    -1.873143     4.803143     3.460186
 H     0.712343     0.952755     2.364699
 C     1.499386    -0.855852     3.199177
 H     1.403044    -0.540067     4.249930
 H     0.618811    -1.459821     2.948188
 H     2.387268    -1.504569     3.132152
 C     2.813868     1.234303     2.759900
 H     2.976363     2.108749     2.114137
 H     2.626500     1.602994     3.781242
 H     3.747956     0.653201     2.784919
 C     4.561778    -0.056601     0.260397
 H     4.476004     1.023195     0.122969
 C     3.560164    -2.220456     0.596254
 H     2.665970    -2.838247     0.699372
 C     5.827999    -0.633817     0.275271
 H     6.723116    -0.023025     0.147340
 C     4.820601    -2.809746     0.628264
 H     4.932770    -3.885754     0.769921
 C     5.950061    -2.010390     0.461963
Cl     7.522442    -2.733352     0.482157
 C     1.313620     2.640813     0.113369
 H     0.815260     2.658132     1.084076
 C     2.491935     1.489450    -1.639674
 H     2.923662     0.574302    -2.052531
 C     1.345811     3.817694    -0.631784
 H     0.890541     4.730897    -0.245538
 C     2.538886     2.657617    -2.390415
 H     3.010039     2.672307    -3.374418
 C     1.958397     3.820292    -1.881441
Cl     1.986568     5.274632    -2.820427
