  42
scf done:    -1297.250875
 C    -1.391355    -2.364739    -0.594471
 H    -1.839629    -2.875284     0.264686
 H    -2.103511    -2.182374    -1.405539
 C    -0.014577    -2.638394    -0.924047
 H     0.543853    -3.349009    -0.305407
 H     0.282974    -2.658696    -1.977296
 H    -0.433944    -0.224481    -1.678379
Ir    -0.176351    -0.655580    -0.106511
 C    -2.347452     2.056033    -0.916361
 C    -3.160262     0.478200     1.340447
 C    -1.062285     2.362474     1.604752
 C     2.849984     0.837238     0.994681
 C     2.998997    -0.528613    -1.548294
 C     1.749764     2.019095    -1.398272
 P     1.840416     0.423703    -0.495503
 P    -1.654145     1.049583     0.463483
 C     0.166247    -1.179647     1.694684
 O     0.393053    -1.465431     2.787995
 H    -1.482251     2.548636    -1.390318
 C    -3.121773     1.244429    -1.941324
 H    -4.022118     0.788051    -1.502245
 H    -2.496019     0.433973    -2.344010
 H    -2.975730     2.851832    -0.478972
 H    -3.448485     1.879397    -2.778853
 H    -3.658032    -0.290189     0.732925
 H    -2.855681     0.007784     2.286847
 H    -3.860959     1.302458     1.549299
 H    -1.856414     3.080717     1.864021
 H    -0.687518     1.887791     2.523588
 H    -0.226750     2.903709     1.137350
 H     2.964697    -0.116382     1.536552
 C     4.195210     1.511998     0.783602
 H     4.094403     2.482941     0.274923
 H     4.877146     0.889662     0.184626
 H     2.190045     1.454526     1.627160
 H     4.691108     1.700675     1.748415
 H     3.246675    -1.469884    -1.036927
 H     2.474731    -0.783671    -2.480255
 H     3.921790     0.022656    -1.785455
 H     1.182145     1.853203    -2.324809
 H     1.201074     2.752539    -0.789517
 H     2.741961     2.424819    -1.647111
