  80
scf done:    -1918.991860
 C     3.667304    -0.634349    -0.142983
 H     4.116187    -1.036433     0.771706
 H     3.823326    -1.278366    -1.014943
 C     3.651173     0.794222    -0.330917
 H     4.089103     1.432017     0.444776
 H     3.782330     1.196700    -1.340181
 H     1.599518    -0.102962    -1.571777
Ir     1.650400     0.095997     0.056688
 O    -0.815764    -1.454052    -1.393060
 C     1.329447    -3.196009    -0.862150
 C    -0.757823    -2.419040     1.201206
 O    -1.371315     1.642967     0.519027
 C     0.630902     3.461523     0.317680
 C    -0.589925     1.884439    -1.998198
 P     0.092502     1.779605    -0.283582
 P     0.297533    -1.784040    -0.209036
 C     1.843379     0.434554     1.925514
 O     2.005514     0.704528     3.034667
 C    -1.838044    -2.256921    -1.954569
 H    -1.744447    -2.153435    -3.050170
 H    -1.692931    -3.321106    -1.724466
 C    -3.224990    -1.817736    -1.526987
 H    -3.947511    -2.465027    -2.056459
 H    -3.367188    -2.020759    -0.450742
 C    -3.525346    -0.355134    -1.814949
 H    -3.258044    -0.130402    -2.862898
 H    -2.860437     0.265558    -1.195514
 C    -4.975338     0.025536    -1.567362
 H    -5.658772    -0.537322    -2.223553
 H    -5.274999    -0.182240    -0.527997
 H    -5.144488     1.097615    -1.750505
 H     2.012719    -2.632369    -1.518705
 C     2.167160    -3.772243     0.276076
 H     2.998551    -4.367348    -0.133406
 H     2.600842    -2.974671     0.897162
 H     1.575372    -4.438250     0.922667
 C     0.686282    -4.288356    -1.708266
 H     0.213785    -3.884564    -2.613667
 H     1.469772    -4.989424    -2.040414
 H    -0.059901    -4.878276    -1.156557
 H    -1.554429    -1.654290     1.186360
 C    -1.405453    -3.793511     1.047367
 H    -2.085886    -3.973466     1.895809
 H    -1.998776    -3.901400     0.131305
 H    -0.654661    -4.597208     1.063529
 C    -0.055653    -2.327434     2.551942
 H     0.395928    -1.343637     2.722553
 H    -0.783329    -2.510133     3.359121
 H     0.740549    -3.079349     2.651256
 C    -1.375563     1.473289     1.921660
 H    -0.841398     0.544057     2.189736
 H    -0.839587     2.306032     2.412054
 C    -2.803723     1.428100     2.420907
 H    -2.784864     1.514993     3.521168
 H    -3.330245     2.323743     2.047338
 C    -3.562318     0.173717     2.015528
 H    -3.075720    -0.702995     2.478459
 H    -3.462667     0.040407     0.927455
 C    -5.031450     0.204263     2.400828
 H    -5.160515     0.324293     3.488690
 H    -5.552536     1.043950     1.913593
 H    -5.547813    -0.722142     2.105967
 H     0.908647     3.216136     1.359924
 C     1.900073     3.948952    -0.370818
 H     2.333873     4.791334     0.190890
 H     2.652502     3.151148    -0.431723
 H     1.693699     4.306912    -1.390123
 C    -0.456427     4.528048     0.353097
 H    -1.402115     4.144816     0.761596
 H    -0.131350     5.376601     0.976675
 H    -0.661956     4.923946    -0.651876
 H    -0.862730     0.823264    -2.134653
 C    -1.838362     2.742240    -2.166268
 H    -2.327237     2.496560    -3.122924
 H    -2.563434     2.575107    -1.359122
 H    -1.594340     3.813967    -2.192252
 C     0.480581     2.223275    -3.029470
 H     1.401422     1.645863    -2.863042
 H     0.109312     1.987083    -4.039171
 H     0.732788     3.294139    -3.016887
