 108
scf done:    -2685.389647
 C     0.115838     2.883713    -2.324827
 H    -0.295248     2.862934    -3.339082
 H    -0.366377     3.620170    -1.675627
 C     1.506145     2.573085    -2.127114
 H     2.119758     2.319984    -2.998452
 H     2.067406     3.093827    -1.346066
 H     0.184967     1.813189     0.007878
Ir     0.278419     0.952494    -1.384759
 O    -2.701633     1.806106    -0.383055
 C    -2.951879    -0.437499    -1.978127
 C    -1.982366    -0.584494     0.850644
 O     0.879343    -1.948482     0.107476
 C     3.112049    -1.041817    -1.263241
 C     2.211068    -0.071656     1.479487
 P     1.645793    -0.506098    -0.234795
 P    -1.863154     0.424653    -0.714219
 C     0.303141    -0.008389    -3.037687
 O     0.272780    -0.599813    -4.024947
 C    -4.108748     1.916738    -0.253126
 H    -4.571269     1.896293    -1.258620
 H    -4.519232     1.076251     0.329181
 C    -4.427098     3.231252     0.424869
 H    -5.523553     3.296241     0.538434
 H    -4.013060     3.205109     1.446652
 C    -3.899894     4.447771    -0.322299
 H    -4.345313     4.474263    -1.333002
 H    -2.815736     4.322591    -0.474624
 C    -4.179337     5.755529     0.399214
 H    -5.260528     5.914724     0.543518
 H    -3.711091     5.766584     1.396814
 H    -3.788014     6.618963    -0.159818
 H    -3.672261     0.324417    -2.308251
 H    -2.288999    -0.623285    -2.833291
 C    -3.661082    -1.690972    -1.571799
 C    -5.003490    -1.647565    -1.181889
 H    -5.529262    -0.689404    -1.199024
 C    -2.979940    -2.928239    -1.569372
 C    -1.558154    -3.029480    -2.040626
 H    -0.868328    -2.405357    -1.449136
 H    -1.459888    -2.704852    -3.089090
 H    -1.199007    -4.065614    -1.977387
 C    -5.675149    -2.793729    -0.764319
 H    -6.723429    -2.733574    -0.462864
 C    -3.664768    -4.067169    -1.132334
 H    -3.137649    -5.025169    -1.120359
 C    -4.997032    -4.009178    -0.726344
 H    -5.506031    -4.916533    -0.392804
 H    -2.133873    -1.620844     0.520732
 H    -0.965101    -0.537810     1.259976
 C    -2.997526    -0.218446     1.889125
 C    -4.144619    -1.005067     2.048558
 H    -4.274324    -1.883654     1.413342
 C    -2.800520     0.895664     2.733030
 C    -1.553867     1.725823     2.648892
 H    -1.415583     2.145424     1.642043
 H    -0.657127     1.123021     2.870559
 H    -1.580322     2.554334     3.369807
 C    -5.120743    -0.680015     2.986288
 H    -6.011025    -1.305610     3.085467
 C    -3.791857     1.206744     3.670142
 H    -3.645762     2.073226     4.321270
 C    -4.949273     0.441277     3.794193
 H    -5.707375     0.713445     4.532488
 C     1.444156    -3.048012     0.802065
 H     1.600142    -3.868636     0.077542
 H     2.433842    -2.793766     1.214036
 C     0.514224    -3.493800     1.913031
 H     1.043240    -4.234209     2.538647
 H     0.317126    -2.623852     2.564091
 C    -0.800595    -4.076518     1.413703
 H    -0.597395    -5.030409     0.895074
 H    -1.214801    -3.405267     0.648231
 C    -1.831138    -4.285170     2.509469
 H    -1.460593    -4.965031     3.293763
 H    -2.092266    -3.329841     2.992837
 H    -2.761754    -4.712005     2.105676
 H     2.704621    -1.915729    -1.798382
 H     3.190855    -0.239517    -2.008133
 C     4.457926    -1.352041    -0.680781
 C     4.769438    -2.650837    -0.257809
 H     4.015898    -3.435727    -0.356801
 C     5.453255    -0.352523    -0.615392
 C     5.206523     1.033075    -1.132892
 H     4.307077     1.487306    -0.692979
 H     5.065134     1.028527    -2.226784
 H     6.054750     1.692431    -0.907346
 C     6.023020    -2.969943     0.257532
 H     6.239210    -3.991806     0.577648
 C     6.705394    -0.688848    -0.089161
 H     7.472655     0.087686    -0.029667
 C     6.995670    -1.977702     0.350634
 H     7.984084    -2.208055     0.755145
 H     1.254560     0.152382     1.980902
 H     2.604905    -0.985881     1.939014
 C     3.176750     1.063983     1.672455
 C     2.820797     2.358964     1.276355
 H     1.836830     2.513881     0.829988
 C     4.428517     0.850601     2.287319
 C     4.828352    -0.489773     2.832264
 H     4.814865    -1.273908     2.061196
 H     4.152408    -0.808363     3.643142
 H     5.845610    -0.454624     3.244050
 C     3.698638     3.428879     1.423580
 H     3.398619     4.427416     1.097288
 C     5.301110     1.936988     2.418852
 H     6.276656     1.771262     2.884227
 C     4.954573     3.213651     1.984516
 H     5.659569     4.040463     2.100312
