  68
scf done:    -1761.883824
 C    -3.563301     0.791618     0.081480
 H    -3.823022     1.365261     0.977950
 H    -3.848996     1.297905    -0.846304
 C    -3.629945    -0.648285     0.138276
 H    -3.936771    -1.127714     1.073839
 H    -3.968583    -1.188873    -0.750527
 H    -1.799727    -0.085177    -1.579856
Ir    -1.568073    -0.017416     0.050080
 O     1.414768     1.187606    -0.803840
 C    -0.658554     2.635289    -1.980632
 C     0.145680     2.995897     0.792954
 O     1.210427    -2.033519     0.452889
 C    -0.932097    -3.502098    -0.307170
 C     0.575923    -1.782298    -2.080535
 P    -0.187819    -1.821487    -0.419894
 P    -0.131762     1.700210    -0.482378
 C    -1.412133     0.095953     1.949496
 O    -1.353920     0.208974     3.094649
 C     2.492087     1.960815    -1.293411
 H     2.442596     1.989527    -2.398386
 H     2.434170     3.002603    -0.932874
 C     3.796012     1.333360    -0.843387
 H     4.623294     1.908208    -1.296443
 H     3.892273     1.459195     0.248170
 C     3.919303    -0.142383    -1.195814
 H     3.796943    -0.267904    -2.287110
 H     3.083304    -0.686225    -0.728993
 C     5.238023    -0.752890    -0.752022
 H     6.100530    -0.251076    -1.220338
 H     5.364489    -0.672148     0.339896
 H     5.292822    -1.821260    -1.010672
 H    -1.749528     2.724677    -1.850377
 C    -0.040756     3.987842    -2.301825
 H     1.032064     3.921432    -2.528352
 H    -0.164182     4.703815    -1.475220
 H    -0.530946     1.919176    -2.809431
 H    -0.531315     4.427911    -3.183962
 H     0.884465     3.729764     0.430821
 C    -1.140647     3.682227     1.227353
 H    -1.880986     2.945973     1.572757
 H    -1.602517     4.248180     0.403531
 H     0.609826     2.464926     1.639960
 H    -0.949164     4.388383     2.049092
 C     1.170039    -2.249986     1.848647
 H     0.218706    -1.878073     2.270985
 H     1.213475    -3.336482     2.045351
 C     2.338217    -1.545993     2.505998
 H     2.407876    -1.889670     3.552977
 H     3.265147    -1.878903     2.006063
 C     2.234194    -0.028515     2.454908
 H     1.345363     0.286561     3.027501
 H     2.048589     0.274737     1.412148
 C     3.465659     0.677190     2.997159
 H     3.649008     0.419842     4.053021
 H     4.369869     0.397577     2.432225
 H     3.364152     1.772139     2.937651
 H    -1.334287    -3.582890     0.715823
 C    -2.032331    -3.741032    -1.328935
 H    -1.637456    -3.750578    -2.356609
 H    -2.796845    -2.953102    -1.269579
 H    -0.119840    -4.242530    -0.398879
 H    -2.526113    -4.709137    -1.156274
 H     1.080642    -0.804435    -2.112467
 C     1.529162    -2.918110    -2.409315
 H     1.012502    -3.888948    -2.460037
 H     2.321161    -2.997330    -1.651084
 H    -0.263784    -1.719939    -2.790736
 H     2.008674    -2.751259    -3.386256
