  84
scf done:    -2767.889974
 C    -0.513693    -3.650600    -0.200419
 H    -1.146340    -4.010824     0.617441
 H    -0.967282    -3.780940    -1.187353
 C     0.913484    -3.717109    -0.067294
 H     1.346721    -4.136214     0.846662
 H     1.507538    -3.915175    -0.964606
 H     0.450587    -1.646480    -1.534425
Ir     0.239737    -1.654847     0.097336
 O    -1.562919     0.434559    -1.758366
 C    -3.119652    -1.462097    -0.616645
 C    -2.231544     0.792658     0.887785
 O     2.297670     0.729551     1.420147
 C     3.593654    -0.592652    -0.537238
 C     1.667809     1.400598    -1.025192
 P     1.924377    -0.077633     0.013603
 P    -1.644967    -0.419575    -0.353722
 C    -0.016518    -1.740300     1.994997
 O    -0.212608    -1.787188     3.126996
 C    -2.516169     1.415257    -2.144246
 H    -2.619706     1.324893    -3.238674
 H    -3.508745     1.195100    -1.712045
 C    -2.051959     2.809028    -1.781629
 H    -1.984610     2.903232    -0.686038
 H    -1.026986     2.925042    -2.161271
 C    -2.936977     3.911271    -2.341547
 H    -3.951079     3.831527    -1.910834
 H    -3.059369     3.767838    -3.430214
 C    -2.367765     5.296184    -2.074758
 H    -2.253314     5.476002    -0.993695
 H    -1.372665     5.405101    -2.534853
 H    -3.014540     6.089239    -2.479113
 C    -3.743960    -2.085335     0.472377
 H    -3.403152    -1.876276     1.490325
 C    -3.548247    -1.767204    -1.912066
 H    -3.044833    -1.309876    -2.766562
 C    -4.793478    -2.975493     0.275830
 H    -5.293181    -3.467141     1.112385
 C    -4.598355    -2.658397    -2.122603
 H    -4.947194    -2.906352    -3.126683
 C    -5.209355    -3.248260    -1.023948
 F    -6.213942    -4.099285    -1.216856
 C    -3.579750     1.153135     1.025444
 H    -4.346381     0.635408     0.444467
 C    -1.271893     1.451377     1.667911
 H    -0.219843     1.167364     1.582609
 C    -3.962502     2.163511     1.901795
 H    -5.007333     2.455731     2.020705
 C    -1.640482     2.464559     2.546599
 H    -0.905724     2.985603     3.162605
 C    -2.982725     2.811266     2.646519
 F    -3.341188     3.778650     3.483980
 C     2.905916     0.009463     2.478994
 H     2.328648    -0.908551     2.689184
 H     3.920706    -0.303459     2.175272
 C     2.968933     0.889033     3.707205
 H     3.490026     0.321273     4.497623
 H     3.602598     1.766053     3.486927
 C     1.606236     1.347320     4.205036
 H     0.964220     0.465700     4.374185
 H     1.120432     1.920942     3.399975
 C     1.677353     2.190992     5.466505
 H     2.126479     1.628948     6.301085
 H     2.290606     3.093519     5.311575
 H     0.677719     2.519114     5.790205
 C     4.588062     0.363115    -0.791261
 H     4.352248     1.427805    -0.718008
 C     3.906775    -1.949929    -0.635554
 H     3.122222    -2.680198    -0.427243
 C     5.873023    -0.031520    -1.143479
 H     6.662328     0.693667    -1.349783
 C     5.189564    -2.359764    -0.992169
 H     5.452865    -3.415372    -1.079179
 C     6.154218    -1.392138    -1.241093
 F     7.381969    -1.771782    -1.582961
 C     1.717512     2.693604    -0.495321
 H     1.887122     2.826990     0.574030
 C     1.459452     1.228711    -2.399080
 H     1.395118     0.220858    -2.815814
 C     1.564295     3.804622    -1.323373
 H     1.589632     4.821714    -0.928292
 C     1.325778     2.329420    -3.237186
 H     1.164401     2.216448    -4.310577
 C     1.377723     3.605053    -2.683845
 F     1.213543     4.663690    -3.478337
