  82
scf done:    -2593.361744
 C    -0.598555    -3.234958    -0.532063
 H    -1.412485    -3.656082     0.066584
 H    -0.780642    -3.289501    -1.608600
 C     0.747687    -3.287157    -0.042524
 H     0.949873    -3.750340     0.928125
 H     1.578229    -3.379460    -0.747067
 H     0.552914    -1.135748    -1.447890
Ir     0.011990    -1.257063     0.087759
 O    -1.056087     1.452341    -1.541972
 O    -2.889413    -0.185811    -1.362367
 O    -2.166654     1.089865     0.743379
 O     1.356586     1.302461     1.717185
 O     3.143555    -0.290162     1.134439
 O     2.104395     1.105145    -0.742226
 P     1.662140     0.205832     0.571673
 P    -1.517402     0.272794    -0.545947
 C    -0.672631    -1.522243     1.882130
 O    -1.113228    -1.699069     2.923612
 C    -1.843128     2.127887    -2.510177
 H    -2.407245     1.412151    -3.123621
 H    -2.542825     2.830325    -2.033188
 H    -1.141065     2.684898    -3.144461
 C    -3.556101    -1.339465    -1.035207
 C    -3.839990    -1.659361     0.290867
 H    -3.539181    -0.973560     1.085689
 C    -3.936940    -2.189971    -2.071916
 H    -3.692752    -1.917883    -3.099984
 C    -4.488287    -2.858870     0.607921
 C    -4.762757    -3.198742     2.044095
 H    -3.861237    -3.062031     2.660870
 H    -5.543265    -2.543375     2.463826
 H    -5.102477    -4.237791     2.155120
 C    -4.598695    -3.372887    -1.761133
 H    -4.897507    -4.050314    -2.564671
 C    -4.864624    -3.711627    -0.433898
 H    -5.368967    -4.653370    -0.203374
 C    -2.816669     2.290877     0.610424
 C    -4.169119     2.324529     0.281734
 H    -4.700530     1.382479     0.129604
 C    -2.092921     3.465810     0.812970
 H    -1.035498     3.393623     1.074280
 C    -4.828217     3.550768     0.133538
 C    -6.291621     3.586445    -0.199288
 H    -6.545789     2.846194    -0.972553
 H    -6.901424     3.349716     0.688186
 H    -6.599753     4.578486    -0.558041
 C    -2.744580     4.685746     0.663410
 H    -2.191791     5.616563     0.812240
 C    -4.096766     4.729107     0.321584
 H    -4.595544     5.694459     0.202731
 C     2.284503     2.009377     2.526879
 H     3.148421     1.379461     2.778653
 H     2.630687     2.919240     2.014751
 H     1.751677     2.287628     3.446128
 C     3.778981    -1.398305     0.635101
 C     3.890127    -1.615889    -0.736571
 H     3.451993    -0.895942    -1.431041
 C     4.322661    -2.299974     1.548927
 H     4.213344    -2.104897     2.616932
 C     4.537917    -2.758967    -1.219717
 C     4.610779    -3.006594    -2.698417
 H     3.612625    -3.237811    -3.104939
 H     4.979022    -2.119506    -3.236050
 H     5.273389    -3.850682    -2.934783
 C     4.980659    -3.427689     1.070394
 H     5.411226    -4.141452     1.776830
 C     5.084419    -3.660135    -0.301129
 H     5.595466    -4.555346    -0.664189
 C     2.705753     2.332887    -0.643783
 C     4.084998     2.428467    -0.480955
 H     4.676099     1.511333    -0.429261
 C     1.905058     3.472950    -0.715558
 H     0.828943     3.348992    -0.849584
 C     4.696148     3.683092    -0.368768
 C     6.185723     3.786674    -0.213396
 H     6.567403     3.044127     0.503249
 H     6.694264     3.600220    -1.173653
 H     6.486854     4.785281     0.132877
 C     2.509657     4.720573    -0.600845
 H     1.897772     5.624850    -0.647401
 C     3.890004     4.825817    -0.423317
 H     4.351418     5.812340    -0.329968
