  72
scf done:    -1690.057857
 C     0.085353    -1.566997    -2.610945
 H    -0.357340    -2.568606    -2.581586
 H    -0.350006    -0.928689    -3.387587
 C     1.483811    -1.417425    -2.300926
 H     2.062387    -2.311373    -2.045712
 H     2.072488    -0.669764    -2.841584
 H     0.358132     0.772181    -1.601720
Ir     0.290194    -0.601673    -0.701115
 C    -2.584629     0.878678    -1.947445
 C    -3.133814    -1.223786     0.017634
 C    -2.268678     1.369632     0.945872
 C     1.013008     1.032199     2.463789
 C     3.294731    -0.189355     1.219628
 C     2.146411     2.248251     0.122855
 P     1.673075     0.586658     0.768553
 P    -1.922081     0.114591    -0.368684
 C     0.341112    -2.223450     0.297483
 O     0.436893    -3.208479     0.890350
 H    -2.058043     0.283816    -2.711009
 C    -4.082438     0.748535    -2.200957
 H    -4.330316     1.205680    -3.172909
 H    -4.408506    -0.300150    -2.244530
 H    -4.688074     1.259795    -1.437830
 C    -2.109493     2.321476    -2.081651
 H    -1.028896     2.403982    -1.890754
 H    -2.298466     2.689110    -3.102644
 H    -2.640183     2.993593    -1.388761
 H    -4.161027    -0.837294    -0.081176
 H    -2.998037    -1.981187    -0.772989
 C    -2.953717    -1.860666     1.389532
 H    -3.109564    -1.100397     2.174182
 H    -1.916149    -2.208292     1.504024
 C    -3.904664    -3.025380     1.619990
 H    -4.957011    -2.708781     1.538172
 H    -3.740119    -3.822588     0.877939
 H    -3.764478    -3.466494     2.618431
 H    -1.858081     0.929739     1.868980
 H    -1.613335     2.226385     0.715611
 C    -3.697162     1.837497     1.192643
 H    -4.355270     0.966320     1.348918
 H    -4.084238     2.351442     0.298681
 C    -3.796260     2.767590     2.393084
 H    -3.451512     2.267691     3.312616
 H    -3.172583     3.665185     2.253728
 H    -4.830718     3.103015     2.563004
 H     0.212112     1.753999     2.227494
 C     0.378794    -0.183037     3.128240
 H    -0.096040     0.100119     4.081422
 H    -0.382492    -0.642793     2.483396
 H     1.128533    -0.958633     3.354253
 C     2.014098     1.707730     3.395032
 H     2.485016     2.594710     2.946990
 H     1.507869     2.038287     4.316510
 H     2.814916     1.015863     3.697794
 H     3.979806     0.612756     1.545802
 H     3.101837    -0.811923     2.110855
 C     3.943259    -1.049091     0.144483
 H     4.072385    -0.464832    -0.780551
 H     3.248156    -1.858435    -0.123798
 C     5.279131    -1.623458     0.588678
 H     6.004584    -0.827330     0.823102
 H     5.166725    -2.242118     1.493929
 H     5.722870    -2.257740    -0.193740
 H     1.188967     2.775377    -0.032375
 H     2.700654     2.800796     0.899944
 C     2.940521     2.228701    -1.175797
 H     2.433491     1.558746    -1.888863
 H     3.935614     1.790108    -0.991254
 C     3.099600     3.613805    -1.782914
 H     2.118764     4.052703    -2.027455
 H     3.606965     4.304916    -1.090224
 H     3.689393     3.580321    -2.711604
