 108
scf done:    -3057.712282
 C    -0.546644    -0.849705    -2.763911
 H    -1.165860    -1.719289    -3.007870
 H    -0.966760     0.098604    -3.111627
 C     0.874915    -1.005855    -2.688019
 H     1.307906    -1.990422    -2.884386
 H     1.534923    -0.182238    -2.973869
 H     0.225016     0.834771    -1.023854
Ir     0.088152    -0.762915    -0.704746
 C    -1.470555     1.474263     1.671181
 C    -2.571223     1.100244    -1.106511
 C    -3.257674    -0.678463     1.082718
 C     2.558763    -1.663328     1.849109
 C     3.623829    -0.699101    -0.529062
 C     2.192955     1.337743     1.064574
 P     2.104001    -0.429838     0.512124
 P    -1.803758     0.216852     0.327394
 C    -0.099109    -2.629955    -0.397936
 O    -0.191481    -3.774636    -0.264729
 H    -0.607314     2.026286     1.271786
 C    -2.588724     2.446936     2.013882
 H    -2.197955     3.212146     2.706035
 H    -2.997353     2.955016     1.133159
 H    -3.418790     1.933460     2.521362
 C    -1.033648     0.718539     2.917282
 H    -0.200608     0.038697     2.710263
 H    -0.708488     1.439062     3.684535
 H    -1.862944     0.130272     3.341069
 C    -3.382461     0.363300    -1.993793
 O    -3.591215    -0.922294    -1.657514
 C    -4.328264    -1.760504    -2.494856
 H    -4.329451    -2.748601    -2.017417
 H    -5.372585    -1.417865    -2.605893
 H    -3.869333    -1.843238    -3.495701
 C    -2.256635     2.418041    -1.470104
 O    -1.379453     3.082355    -0.681654
 C    -1.269948     4.470898    -0.788073
 H    -0.632716     4.794455     0.044404
 H    -2.254599     4.964269    -0.708458
 H    -0.794046     4.780545    -1.736021
 C    -2.806296     3.010644    -2.617175
 H    -2.563033     4.040219    -2.877073
 C    -3.933020     0.941262    -3.141398
 H    -4.569050     0.358306    -3.806373
 C    -3.647724     2.270461    -3.436655
 H    -4.073803     2.730023    -4.331517
 C    -4.571227    -0.160858     1.007240
 O    -4.709703     1.065210     0.472860
 C    -5.968767     1.553117     0.120111
 H    -5.793234     2.494529    -0.416856
 H    -6.503702     0.856918    -0.548942
 H    -6.598673     1.755425     1.004649
 C    -3.103998    -1.931339     1.711320
 O    -1.853161    -2.402998     1.865650
 C    -1.669790    -3.681743     2.410479
 H    -0.592788    -3.876660     2.390361
 H    -2.175909    -4.454659     1.808813
 H    -2.029095    -3.733820     3.452915
 C    -4.213953    -2.658260     2.172627
 H    -4.081254    -3.629576     2.644615
 C    -5.680840    -0.882210     1.462562
 H    -6.683607    -0.464602     1.382790
 C    -5.489218    -2.131884     2.035335
 H    -6.349590    -2.700522     2.396508
 H     2.621506    -2.529891     1.168133
 C     3.928210    -1.476951     2.487034
 H     4.178806    -2.363278     3.093980
 H     4.716047    -1.357420     1.730017
 H     3.945135    -0.596713     3.142318
 C     1.460055    -1.988792     2.846298
 H     0.475675    -1.980943     2.359433
 H     1.633784    -2.990715     3.272725
 H     1.431347    -1.271582     3.674599
 C     4.695764     0.209118    -0.636428
 O     4.736910     1.210874     0.260620
 C     5.518848     2.341491     0.016436
 H     5.234839     3.083111     0.775051
 H     6.598843     2.128958     0.110080
 H     5.320905     2.761169    -0.985128
 C     3.715346    -1.883703    -1.292631
 O     2.805837    -2.841623    -1.027984
 C     2.791374    -4.025788    -1.773705
 H     1.944288    -4.612185    -1.397969
 H     3.724925    -4.600514    -1.642599
 H     2.639670    -3.827987    -2.849066
 C     4.722772    -2.063552    -2.248753
 H     4.758379    -2.968167    -2.853742
 C     5.699603     0.046325    -1.600179
 H     6.500551     0.779254    -1.691976
 C     5.690819    -1.080526    -2.411109
 H     6.473726    -1.213149    -3.161663
 C     2.174789     2.322096     0.052631
 O     2.398924     1.888391    -1.200170
 C     1.938406     2.642245    -2.287217
 H     2.072826     2.016514    -3.178235
 H     0.868115     2.878599    -2.174212
 H     2.517140     3.573592    -2.419988
 C     2.102264     1.787476     2.392675
 O     2.181498     0.855732     3.365739
 C     2.143830     1.243126     4.707570
 H     2.254104     0.324509     5.298960
 H     1.185202     1.721210     4.973451
 H     2.969964     1.931102     4.958419
 C     1.922500     3.145715     2.694358
 H     1.830854     3.474108     3.728332
 C     1.990414     3.676306     0.343057
 H     1.971802     4.411700    -0.460515
 C     1.855607     4.077218     1.666956
 H     1.711614     5.134053     1.904790
