  88
scf done:    -4509.812095
 C     0.467195     0.388785    -3.178158
 H     0.511538    -0.573042    -3.697788
 H    -0.333027     1.043507    -3.532587
 C     1.671351     0.961850    -2.658076
 H     2.621212     0.432907    -2.784258
 H     1.776823     2.049253    -2.623343
 H    -0.213833     1.703338    -1.088799
Ir     0.460545     0.217482    -1.020896
 O    -2.401158     0.619122     0.635019
 O    -2.697755    -0.459542    -1.668339
 O    -1.941354    -1.789315     0.374588
 O     1.272780    -0.220655     2.141033
 O     2.870530     1.443253     1.044654
 O     0.638174     2.128994     1.800488
 P     1.302713     0.880136     0.960951
 P    -1.631096    -0.350642    -0.403903
 C     1.380809    -1.491686    -1.089797
 O     1.991226    -2.455865    -1.169682
 C    -3.433767     0.243431     1.560393
 H    -4.113608     1.108851     1.596442
 H    -3.999938    -0.612729     1.168803
 C    -2.875345    -0.067609     2.930979
 H    -3.728738    -0.367186     3.565533
 H    -2.223825    -0.953592     2.852317
 C    -2.117620     1.079780     3.580636
 H    -2.770249     1.969884     3.626895
 H    -1.267935     1.357475     2.939644
 C    -1.616045     0.739644     4.974345
 H    -2.446378     0.508735     5.661244
 H    -0.956520    -0.143295     4.953893
 H    -1.044096     1.571883     5.412014
 C    -4.058108    -0.494369    -1.505126
 C    -4.776939     0.700344    -1.534071
 H    -4.237963     1.638075    -1.678929
 C    -4.717617    -1.710473    -1.325682
 H    -4.143301    -2.637514    -1.302187
 C    -6.158574     0.683739    -1.372437
 H    -6.733787     1.610705    -1.392355
 C    -6.099917    -1.730937    -1.163982
 H    -6.629264    -2.674231    -1.021111
 C    -6.813869    -0.533058    -1.183351
Cl    -8.533079    -0.557012    -0.975864
 C    -1.183131    -2.905414     0.158776
 C    -1.190496    -3.550854    -1.078513
 H    -1.787805    -3.143629    -1.896579
 C    -0.398902    -3.390281     1.204540
 H    -0.389051    -2.850099     2.152197
 C    -0.415803    -4.691487    -1.267436
 H    -0.403186    -5.201650    -2.231573
 C     0.372955    -4.531653     1.019402
 H     0.996878    -4.919612     1.825797
 C     0.362741    -5.175871    -0.217796
Cl     1.337607    -6.586806    -0.452705
 C     1.863678    -0.032692     3.427665
 H     2.878725     0.380002     3.302373
 H     1.265033     0.697647     3.993708
 C     1.901202    -1.373993     4.122139
 H     2.304881    -1.220846     5.137888
 H     0.864827    -1.732393     4.254717
 C     2.718354    -2.423682     3.381215
 H     3.759796    -2.068567     3.283996
 H     2.328889    -2.512811     2.353654
 C     2.698744    -3.784563     4.056858
 H     3.120158    -3.738413     5.073769
 H     1.669394    -4.168264     4.150318
 H     3.280707    -4.526437     3.489479
 C     3.831568     1.012999     0.170375
 C     4.425792     1.942150    -0.681564
 H     4.096282     2.981835    -0.644555
 C     4.217394    -0.325900     0.132444
 H     3.746556    -1.045128     0.805112
 C     5.408556     1.533250    -1.575975
 H     5.879126     2.248481    -2.252206
 C     5.190591    -0.742914    -0.771173
 H     5.488311    -1.791142    -0.821091
 C     5.781798     0.189338    -1.621876
Cl     6.992575    -0.324648    -2.749008
 C     0.392723     3.358395     1.242032
 C    -0.879849     3.641247     0.749069
 H    -1.640805     2.859313     0.771810
 C     1.403917     4.316665     1.205414
 H     2.389522     4.063189     1.598372
 C    -1.145366     4.900763     0.220855
 H    -2.134301     5.142633    -0.171420
 C     1.139711     5.576041     0.674167
 H     1.916508     6.341476     0.639801
 C    -0.134524     5.861043     0.184831
Cl    -0.466078     7.428628    -0.475753
