  78
scf done:    -2292.550452
 C    -0.164330    -3.098581     0.713701
 H     0.436667    -3.835268     0.168441
 H     0.035935    -3.095974     1.789818
 C    -1.504741    -2.841162     0.250771
 H    -1.870365    -3.385491    -0.627253
 H    -2.283183    -2.630088     0.989872
 H    -0.717607    -0.706135     1.343495
Ir    -0.258357    -1.134157    -0.159979
 O     1.101642     1.536007     1.128724
 C     2.822224    -0.551292     1.590382
 C     2.604704     0.720987    -1.044941
 O    -0.453286     1.628105    -1.889330
 C    -2.810335     0.358816    -2.182683
 C    -2.140468     1.929527     0.225583
 P    -1.452937     0.667269    -0.948716
 P     1.586565     0.130689     0.386873
 C     0.280577    -1.740602    -1.908019
 O     0.607489    -2.109205    -2.945471
 C     1.846361     2.288779     2.059891
 H     1.836257     1.811264     3.054489
 H     2.887936     2.455171     1.744741
 H     1.357354     3.269811     2.142078
 H     2.210231    -1.024163     2.376401
 H     3.380720     0.274812     2.053269
 C     3.794861    -1.529882     0.992906
 C     5.172489    -1.321333     1.135730
 H     5.526406    -0.454648     1.701140
 C     3.362469    -2.656769     0.281428
 H     2.291098    -2.833200     0.170445
 C     6.094728    -2.203438     0.575591
 H     7.164846    -2.022277     0.703022
 C     4.283587    -3.535589    -0.284577
 H     3.924820    -4.405321    -0.840391
 C     5.652447    -3.312445    -0.143357
 H     6.372663    -4.003551    -0.587530
 H     1.851373     0.911316    -1.822502
 H     3.208488    -0.145781    -1.357144
 C     3.433138     1.939603    -0.796769
 C     4.779473     1.853976    -0.422347
 H     5.255368     0.872214    -0.365570
 C     2.845406     3.208779    -0.893963
 H     1.795549     3.281279    -1.184947
 C     5.511149     3.003246    -0.126848
 H     6.561462     2.917103     0.162888
 C     3.575205     4.357237    -0.600895
 H     3.099324     5.338051    -0.679023
 C     4.910269     4.258885    -0.207687
 H     5.483710     5.159479     0.024122
 C    -0.804342     2.898181    -2.372099
 H    -1.784735     2.909624    -2.880860
 H    -0.825198     3.653262    -1.567751
 H    -0.040363     3.194601    -3.105569
 H    -2.442017    -0.483192    -2.789008
 H    -2.877108     1.234465    -2.845625
 C    -4.158867     0.062819    -1.600953
 C    -5.217633     0.962284    -1.774734
 H    -5.057810     1.874887    -2.356433
 C    -4.385492    -1.103780    -0.860470
 H    -3.562408    -1.803307    -0.707463
 C    -6.471837     0.707422    -1.221102
 H    -7.286747     1.419735    -1.371270
 C    -5.634716    -1.356178    -0.301144
 H    -5.788807    -2.266325     0.283158
 C    -6.682795    -0.452696    -0.477798
 H    -7.663125    -0.653969    -0.039458
 H    -2.852863     2.566082    -0.322784
 H    -1.246109     2.527995     0.460328
 C    -2.750322     1.421085     1.500304
 C    -1.935386     1.153579     2.607946
 H    -0.859468     1.311744     2.518281
 C    -4.127935     1.213948     1.618924
 H    -4.781752     1.420214     0.769658
 C    -2.483239     0.680483     3.797164
 H    -1.830524     0.474897     4.649266
 C    -4.676992     0.738322     2.807833
 H    -5.755823     0.577845     2.874162
 C    -3.857088     0.466217     3.901059
 H    -4.287268     0.091747     4.833166
