  78
scf done:    -2292.554941
 C     0.214578    -1.116899    -3.625893
 H     0.016299    -2.156648    -3.904181
 H    -0.387670    -0.395866    -4.185087
 C     1.535128    -0.746821    -3.189625
 H     2.317713    -1.511613    -3.144759
 H     1.916270     0.250594    -3.427748
 H    -0.083824     0.794471    -1.992728
Ir     0.191197    -0.740565    -1.506465
 O    -3.053411    -0.710238    -2.073336
 C    -2.711265    -1.460508     0.560469
 C    -2.365250     1.226621    -0.290796
 O     0.425291    -0.232136     1.752398
 C     2.870737    -0.702244     0.682417
 C     1.638956     1.876929     0.482685
 P     1.262642     0.091567     0.346995
 P    -1.996431    -0.486549    -0.819539
 C     0.609636    -2.569605    -1.100796
 O     0.917979    -3.657498    -0.893510
 C    -4.450911    -0.643169    -1.933560
 H    -4.839398    -1.477841    -1.326513
 H    -4.777501     0.307898    -1.476460
 H    -4.880724    -0.711783    -2.943065
 C    -2.080862    -2.636133     0.974730
 H    -1.155066    -2.947783     0.492158
 C    -3.885715    -1.070650     1.221854
 H    -4.385567    -0.139622     0.945275
 C    -2.609460    -3.405348     2.007452
 H    -2.091071    -4.317595     2.315157
 C    -4.411158    -1.841876     2.252770
 H    -5.324735    -1.513779     2.756827
 C    -3.785268    -3.026281     2.662782
 C    -4.371721    -3.868634     3.756761
 H    -5.149776    -4.540578     3.357204
 H    -3.608456    -4.499128     4.234552
 H    -4.844992    -3.250063     4.533453
 C    -2.677034     2.191341    -1.253359
 H    -2.813482     1.886544    -2.294231
 C    -2.162040     1.637021     1.032299
 H    -1.895843     0.898076     1.790377
 C    -2.783973     3.534599    -0.898297
 H    -3.027699     4.275383    -1.665195
 C    -2.264237     2.980116     1.376749
 H    -2.087137     3.282771     2.412829
 C    -2.571856     3.954803     0.419312
 C    -2.632891     5.404936     0.798707
 H    -3.276636     5.565170     1.677332
 H    -1.629859     5.780570     1.061784
 H    -3.018270     6.023717    -0.023779
 C     0.792139     0.292852     3.005060
 H     1.842395     0.067673     3.259593
 H     0.649074     1.385997     3.041594
 H     0.140812    -0.178319     3.755535
 C     2.939096    -1.824357     1.512772
 H     2.042183    -2.161771     2.038113
 C     4.021670    -0.306096    -0.011720
 H     3.981959     0.556425    -0.682371
 C     4.137165    -2.520503     1.661285
 H     4.172149    -3.394596     2.317536
 C     5.211609    -1.006499     0.141784
 H     6.100468    -0.680366    -0.405997
 C     5.293140    -2.126784     0.981455
 C     6.578798    -2.888177     1.118974
 H     6.807865    -3.444471     0.195144
 H     7.427703    -2.213035     1.307533
 H     6.531552    -3.615444     1.941562
 C     0.844122     2.797085    -0.207999
 H     0.059996     2.429934    -0.873195
 C     2.649057     2.366147     1.323930
 H     3.292608     1.669880     1.867172
 C     1.046164     4.164917    -0.055126
 H     0.406165     4.861327    -0.603849
 C     2.848429     3.735138     1.469625
 H     3.641658     4.095155     2.130986
 C     2.050189     4.660014     0.783797
 C     2.287516     6.135129     0.918998
 H     2.683813     6.392203     1.912064
 H     3.022580     6.482781     0.173801
 H     1.363310     6.708551     0.756152
