  62
scf done:    -1683.304516
 C    -0.073250    -2.357989    -2.121063
 H    -0.520569    -3.296983    -1.780256
 H    -0.554537    -1.939590    -3.009023
 C     1.327707    -2.136501    -1.901409
 H     1.912198    -2.915590    -1.400889
 H     1.901902    -1.567106    -2.638220
 H     0.202834     0.183439    -1.835242
Ir     0.164843    -0.872853    -0.574915
 O    -2.697791    -0.239245    -1.945675
 C    -3.214169    -0.695249     0.668598
 C    -2.045989     1.834325    -0.228852
 O     1.002365     1.777251     1.476881
 C     3.023193    -0.018146     1.316261
 C     2.326647     1.865841    -0.778294
 P     1.592484     0.655783     0.375767
 P    -1.959594     0.006445    -0.481743
 C     0.177485    -2.123933     0.868921
 O     0.215489    -2.864996     1.750960
 C    -3.898830     0.364868    -2.339999
 H    -4.723159     0.190356    -1.625482
 H    -3.787186     1.453816    -2.485902
 H    -4.186821    -0.078493    -3.304167
 H    -4.181245    -0.188818     0.509023
 H    -3.340163    -1.738308     0.332695
 C    -2.839945    -0.658877     2.143991
 H    -2.653758     0.382208     2.458478
 H    -1.888830    -1.194401     2.288778
 C    -3.909823    -1.273318     3.033562
 H    -4.867381    -0.736178     2.940470
 H    -4.092754    -2.325154     2.762811
 H    -3.613862    -1.248554     4.093223
 H    -1.192489     2.067896     0.428440
 H    -1.764490     2.253876    -1.211658
 C    -3.317572     2.485280     0.303444
 H    -3.569035     2.055024     1.286973
 H    -4.175894     2.258813    -0.348796
 C    -3.169050     3.993587     0.440538
 H    -2.336363     4.249442     1.115007
 H    -2.957002     4.463152    -0.533263
 H    -4.082904     4.456046     0.843549
 C     0.392209     1.308957     2.649509
 H    -0.264548     0.444738     2.446311
 H     1.137823     1.010272     3.407818
 H    -0.216476     2.124569     3.067846
 H     3.528697     0.813203     1.836561
 H     2.594642    -0.674627     2.093213
 C     3.994022    -0.812335     0.451879
 H     4.461652    -0.140868    -0.288893
 H     3.422804    -1.552615    -0.131376
 C     5.075574    -1.506268     1.264734
 H     5.672748    -0.782950     1.843054
 H     4.636690    -2.219758     1.980346
 H     5.766179    -2.067163     0.616818
 H     2.778653     1.269303    -1.588389
 H     1.460769     2.374275    -1.234266
 C     3.306216     2.870980    -0.190454
 H     4.187117     2.341405     0.210532
 H     2.829685     3.369025     0.668823
 C     3.760963     3.904042    -1.210167
 H     4.258216     3.427437    -2.070226
 H     2.906917     4.479240    -1.602108
 H     4.470886     4.620259    -0.769010
