  66
scf done:    -2532.183013
 C     0.218792    -1.067401    -3.623264
 H     0.050557    -2.110192    -3.909161
 H    -0.411135    -0.360315    -4.169431
 C     1.529606    -0.659602    -3.194498
 H     2.336430    -1.399372    -3.163585
 H     1.875800     0.352139    -3.425224
 H    -0.127051     0.816082    -1.966237
Ir     0.200696    -0.714283    -1.498501
 O    -3.052017    -0.837918    -2.020753
 C    -2.635953    -1.525795     0.620140
 C    -2.421698     1.155698    -0.283446
 O     0.460697    -0.215485     1.762289
 C     2.902529    -0.619359     0.656593
 C     1.601837     1.926978     0.489748
 P     1.269111     0.133867     0.346403
 P    -1.986549    -0.549308    -0.790325
 C     0.678396    -2.535326    -1.118175
 O     1.018597    -3.615051    -0.921515
 C    -4.449946    -0.835523    -1.861638
 H    -4.789091    -1.679397    -1.238257
 H    -4.815298     0.105591    -1.413417
 H    -4.889390    -0.939359    -2.863626
 C    -3.816985    -1.172950     1.291877
 H    -4.364404    -0.273475     1.002221
 C    -1.944092    -2.665838     1.041936
 H    -1.016582    -2.946401     0.544055
 C    -4.298336    -1.939164     2.348235
 H    -5.213560    -1.673114     2.880068
 C    -2.411391    -3.444045     2.096456
 H    -1.875956    -4.333590     2.432562
 C    -3.586142    -3.069044     2.735915
 F    -4.038130    -3.802212     3.748273
 C    -2.783617     2.084864    -1.266431
 H    -2.917159     1.750000    -2.298190
 C    -2.217287     1.598130     1.028999
 H    -1.906465     0.886422     1.796259
 C    -2.944803     3.430617    -0.948707
 H    -3.225023     4.168695    -1.702583
 C    -2.371748     2.941828     1.358731
 H    -2.202522     3.306393     2.373411
 C    -2.730695     3.841212     0.362506
 F    -2.859243     5.131007     0.666338
 C     0.832412     0.312776     3.013602
 H     1.892368     0.116671     3.250757
 H     0.658658     1.400964     3.059385
 H     0.207041    -0.181217     3.771120
 C     4.027942    -0.195331    -0.062740
 H     3.952783     0.662271    -0.736336
 C     3.008759    -1.740864     1.487178
 H     2.128254    -2.098165     2.026435
 C     5.242641    -0.860202     0.062818
 H     6.129553    -0.542631    -0.488355
 C     4.219946    -2.414992     1.621160
 H     4.320629    -3.290422     2.265111
 C     5.322648    -1.962478     0.908032
 F     6.483452    -2.600685     1.031828
 C     2.621276     2.432735     1.311021
 H     3.299184     1.748436     1.826425
 C     0.758372     2.829600    -0.169684
 H    -0.026835     2.442820    -0.822762
 C     2.793392     3.803391     1.473623
 H     3.585463     4.211823     2.103717
 C     0.911401     4.202592    -0.008129
 H     0.251504     4.913591    -0.508235
 C     1.929570     4.671107     0.813089
 F     2.087369     5.981123     0.969942
