  90
scf done:    -2449.701886
 C     1.170609    -0.111723     3.640361
 H     1.919669    -0.862690     3.913719
 H     1.477060     0.910392     3.883370
 C    -0.226492    -0.461065     3.729656
 H    -0.495724    -1.467588     4.067686
 H    -0.943057     0.303411     4.047231
 H    -0.050136     1.267064     1.872419
Ir     0.348681    -0.307310     1.660700
 O     2.083829     2.166013     0.119130
 C     3.701217     0.253432     0.968186
 C     2.137394     0.016712    -1.496142
 O    -1.287440     0.315365    -1.135566
 C    -2.383185    -1.961765     0.133905
 C    -2.910980     0.743693     1.148974
 P    -1.559725    -0.293076     0.379917
 P     2.015784     0.522143     0.282927
 C     0.774840    -2.176979     1.563286
 O     0.995278    -3.304292     1.580985
 C     0.929495     2.939670    -0.217526
 H     0.049468     2.274184    -0.243892
 C     1.131182     3.548970    -1.591750
 H     1.291050     2.768428    -2.349175
 H     2.007767     4.215304    -1.596813
 H     0.246701     4.134296    -1.885347
 C     0.739624     3.979200     0.867282
 H     0.553461     3.488263     1.833262
 H     1.644333     4.599710     0.960852
 H    -0.109151     4.639946     0.633947
 H     3.723266    -0.809495     1.252883
 H     3.677919     0.821682     1.913249
 C     4.898632     0.608254     0.134970
 C     5.089265     1.901400    -0.372581
 H     4.337647     2.664535    -0.165860
 C     5.869757    -0.363012    -0.139096
 H     5.737353    -1.374887     0.253427
 C     6.209698     2.203252    -1.143510
 H     6.338762     3.216091    -1.533538
 C     6.993182    -0.060599    -0.906416
 H     7.738149    -0.834976    -1.105783
 C     7.165460     1.225006    -1.416000
 H     8.044004     1.465339    -2.019477
 H     2.964612     0.592555    -1.937808
 H     1.186777     0.370024    -1.924681
 C     2.302868    -1.454015    -1.716501
 C     1.204195    -2.315174    -1.608264
 H     0.229720    -1.883223    -1.381958
 C     3.553111    -2.006245    -2.021234
 H     4.417831    -1.347377    -2.126106
 C     1.349156    -3.688798    -1.779492
 H     0.479993    -4.343850    -1.680044
 C     3.700781    -3.380698    -2.196217
 H     4.684672    -3.791983    -2.435566
 C     2.600892    -4.228397    -2.070353
 H     2.718293    -5.306434    -2.203102
 C    -2.129365     0.319938    -2.296408
 H    -3.164644     0.098165    -1.994756
 C    -1.637758    -0.734554    -3.270954
 H    -1.640103    -1.741069    -2.830486
 H    -0.606530    -0.516131    -3.587042
 H    -2.275545    -0.753306    -4.167709
 C    -2.078892     1.705708    -2.903620
 H    -2.437740     2.459377    -2.192519
 H    -1.045892     1.956172    -3.189519
 H    -2.708254     1.751346    -3.804710
 H    -2.147983    -2.470245     1.081309
 H    -1.791972    -2.473491    -0.640739
 C    -3.855142    -2.044569    -0.137585
 C    -4.374554    -2.119363    -1.436827
 H    -3.693385    -2.168658    -2.287878
 C    -4.763830    -2.045379     0.931531
 H    -4.383922    -2.041038     1.957224
 C    -5.749198    -2.140703    -1.662038
 H    -6.127267    -2.196646    -2.685692
 C    -6.139315    -2.063500     0.711032
 H    -6.823993    -2.056595     1.562360
 C    -6.639195    -2.098606    -0.589600
 H    -7.717050    -2.111472    -0.766130
 H    -2.414711     1.188493     2.020605
 H    -3.673052     0.046981     1.524025
 C    -3.550246     1.812677     0.319361
 C    -4.697845     1.561128    -0.443720
 H    -5.140819     0.561322    -0.437693
 C    -3.013631     3.106122     0.314176
 H    -2.128216     3.315555     0.919264
 C    -5.280018     2.573019    -1.204166
 H    -6.175024     2.358071    -1.793174
 C    -3.598643     4.120869    -0.440646
 H    -3.166972     5.124823    -0.427411
 C    -4.732536     3.856187    -1.207735
 H    -5.193224     4.649259    -1.801274
