  96
scf done:    -2528.261927
 C    -0.442911    -3.668202     0.107242
 H    -1.062419    -3.978214     0.955241
 H    -0.900636    -3.883667    -0.862791
 C     0.987034    -3.692501     0.234952
 H     1.432500    -4.030936     1.176402
 H     1.585215    -3.941593    -0.646711
 H     0.461829    -1.762512    -1.390726
Ir     0.268345    -1.640845     0.239129
 O    -1.510324     0.359639    -1.733140
 C    -3.066485    -1.549808    -0.608717
 C    -2.280617     0.764536     0.873249
 O     2.271809     0.903280     1.332476
 C     3.609901    -0.588189    -0.467429
 C     1.651780     1.313339    -1.178463
 P     1.925477    -0.044497     0.006769
 P    -1.628973    -0.467430    -0.313045
 C     0.030950    -1.572278     2.137960
 O    -0.150339    -1.529578     3.273318
 C    -2.458909     1.319694    -2.170467
 H    -2.501121     1.225944    -3.269038
 H    -3.468540     1.078507    -1.791063
 C    -2.055497     2.727601    -1.785638
 H    -2.050086     2.820435    -0.688575
 H    -1.017165     2.886909    -2.112989
 C    -2.963789     3.791490    -2.381530
 H    -4.006544     3.608380    -2.065467
 H    -2.964131     3.703957    -3.483282
 C    -2.551231     5.198917    -1.980303
 H    -2.580212     5.320460    -0.885656
 H    -1.520904     5.416988    -2.304642
 H    -3.211201     5.961639    -2.420819
 C    -3.454950    -1.879966    -1.908142
 H    -2.940840    -1.421372    -2.755798
 C    -3.709710    -2.176359     0.467537
 H    -3.403269    -1.947912     1.492428
 C    -4.480555    -2.799455    -2.125913
 H    -4.773467    -3.043984    -3.150846
 C    -4.731384    -3.089453     0.242223
 H    -5.224649    -3.564687     1.095067
 C    -5.138086    -3.418131    -1.059721
 C    -6.232872    -4.418492    -1.288350
 H    -5.929221    -5.421964    -0.948386
 H    -7.143239    -4.151099    -0.729219
 H    -6.497034    -4.491641    -2.352539
 C    -3.641148     1.079057     0.982345
 H    -4.380403     0.509072     0.414463
 C    -1.358626     1.500713     1.627193
 H    -0.293292     1.265455     1.554760
 C    -4.062144     2.116539     1.808591
 H    -5.128236     2.351049     1.876453
 C    -1.787011     2.537839     2.448854
 H    -1.051134     3.105805     3.024368
 C    -3.143825     2.867078     2.553243
 C    -3.603065     3.965482     3.465558
 H    -3.816779     3.571198     4.473240
 H    -2.835277     4.744663     3.576573
 H    -4.525289     4.437839     3.097534
 C     2.898291     0.306201     2.452701
 H     2.343047    -0.599072     2.757173
 H     3.919976    -0.012577     2.179212
 C     2.942104     1.304210     3.588340
 H     3.466338     0.825512     4.433946
 H     3.563664     2.165042     3.284923
 C     1.569137     1.788812     4.029606
 H     0.935667     0.918200     4.272261
 H     1.086336     2.280039     3.170240
 C     1.615909     2.744811     5.209423
 H     2.061542     2.267574     6.097182
 H     2.220149     3.637434     4.979179
 H     0.608483     3.088471     5.491011
 C     3.967907    -1.930438    -0.341920
 H     3.207058    -2.643532    -0.017734
 C     4.579576     0.339027    -0.874330
 H     4.314083     1.394365    -0.977011
 C     5.268834    -2.343236    -0.625333
 H     5.533037    -3.399451    -0.522818
 C     5.874506    -0.079106    -1.153199
 H     6.620829     0.654735    -1.471303
 C     6.241962    -1.428475    -1.037734
 C     7.636065    -1.871092    -1.371742
 H     8.387199    -1.187738    -0.947379
 H     7.840172    -2.883120    -0.994970
 H     7.792163    -1.885008    -2.463226
 C     1.742884     2.655493    -0.803622
 H     1.951609     2.906509     0.237423
 C     1.390245     0.997544    -2.516804
 H     1.293252    -0.048643    -2.816025
 C     1.580687     3.662343    -1.755374
 H     1.650064     4.709169    -1.446145
 C     1.245452     2.006395    -3.459842
 H     1.047444     1.741877    -4.502440
 C     1.333720     3.358304    -3.096972
 C     1.119701     4.440062    -4.114322
 H     1.631029     4.211041    -5.061406
 H     0.046854     4.553253    -4.345394
 H     1.483317     5.412623    -3.753616
