  96
scf done:    -2004.319053
 C    -0.127794     0.997699    -3.462617
 H     0.075467     2.057306    -3.652435
 H     0.421029     0.329897    -4.133816
 C    -1.445625     0.611590    -3.025739
 H    -2.208556     1.387993    -2.899049
 H    -1.856827    -0.341944    -3.372871
 H     0.187957    -1.107311    -1.980586
Ir    -0.063245     0.418793    -1.389580
 C     3.311894     0.908663    -2.167868
 C     2.654188     1.448157     0.631880
 C     2.830507    -1.300981    -0.253010
 C    -0.477842    -1.905820     1.363643
 C    -2.230018     0.449032     1.396091
 C    -2.719286    -1.615965    -0.551039
 P    -1.340689    -0.682495     0.240744
 P     2.196695     0.348224    -0.778594
 C    -0.292552     2.171424    -0.694631
 O    -0.386813     3.220069    -0.219612
 H     2.720045     1.733509    -2.600188
 C     4.683798     1.449738    -1.782510
 H     5.220945     1.776416    -2.688064
 H     4.616557     2.320041    -1.114112
 H     5.309091     0.691202    -1.289005
 C     3.401162    -0.194300    -3.216779
 H     2.406933    -0.607088    -3.443810
 H     3.830578     0.198044    -4.152071
 H     4.048519    -1.019529    -2.878890
 H     2.400497     2.471496     0.305393
 H     3.742028     1.424790     0.796237
 C     1.893094     1.103950     1.904267
 H     0.838251     0.928097     1.637185
 H     2.268432     0.148790     2.316652
 C     1.946648     2.167013     3.002085
 H     1.558537     3.105422     2.563560
 C     1.028759     1.774785     4.154310
 H    -0.008431     1.634388     3.810732
 H     1.019181     2.542537     4.943245
 H     1.358258     0.827902     4.614614
 C     3.366669     2.422513     3.493187
 H     3.382882     3.182656     4.289526
 H     4.024748     2.777132     2.685618
 H     3.808959     1.499253     3.905254
 H     2.632947    -1.981629    -1.096369
 H     2.124512    -1.610504     0.530002
 C     4.263660    -1.437827     0.240163
 H     4.955898    -1.359692    -0.613751
 H     4.524036    -0.605182     0.917897
 C     4.537994    -2.753643     0.977734
 H     4.179075    -3.578034     0.333041
 C     6.035152    -2.941533     1.193556
 H     6.583815    -2.938487     0.238868
 H     6.253269    -3.892025     1.704636
 H     6.445107    -2.128300     1.815835
 C     3.789039    -2.832247     2.304434
 H     3.982433    -3.788685     2.813983
 H     2.699265    -2.744803     2.177761
 H     4.111955    -2.023200     2.981512
 H     0.472585    -1.386403     1.569550
 C    -1.129551    -2.201779     2.709477
 H    -0.507723    -2.918558     3.271075
 H    -1.224445    -1.299540     3.330650
 H    -2.128930    -2.648360     2.604465
 C    -0.161261    -3.177123     0.583250
 H     0.257820    -2.946705    -0.407714
 H     0.569531    -3.795145     1.129433
 H    -1.063647    -3.790604     0.435771
 H    -1.447784     1.056451     1.883149
 H    -2.725488    -0.127500     2.191376
 C    -3.225379     1.354312     0.677629
 H    -2.821706     1.628590    -0.311314
 H    -4.155573     0.792699     0.476885
 C    -3.570649     2.635967     1.437492
 H    -2.621902     3.182262     1.593820
 C    -4.480877     3.520351     0.594627
 H    -4.014989     3.761828    -0.373222
 H    -4.706595     4.468899     1.106152
 H    -5.440157     3.016024     0.388892
 C    -4.186902     2.350772     2.802235
 H    -4.433244     3.284681     3.330958
 H    -3.508317     1.774981     3.450175
 H    -5.120570     1.771974     2.697009
 H    -2.244824    -2.322512    -1.251132
 H    -3.191132    -0.857117    -1.194396
 C    -3.749448    -2.313180     0.325438
 H    -3.282537    -3.177444     0.825331
 H    -4.086919    -1.641727     1.135693
 C    -4.986464    -2.804037    -0.435526
 H    -4.630755    -3.402229    -1.295594
 C    -5.830489    -3.711703     0.451915
 H    -5.252497    -4.577965     0.810236
 H    -6.712447    -4.093950    -0.085030
 H    -6.193361    -3.163906     1.337940
 C    -5.823406    -1.650413    -0.978115
 H    -6.695447    -2.021934    -1.537935
 H    -5.251109    -1.000655    -1.656796
 H    -6.201110    -1.022653    -0.153113
