  82
scf done:    -2990.140052
 C     0.414405    -3.652875    -1.116076
 H     0.975003    -3.846437    -2.035020
 H     0.871327    -4.087358    -0.223178
 C    -1.005845    -3.495911    -1.172928
 H    -1.516263    -3.578320    -2.137221
 H    -1.617332    -3.809890    -0.322764
 H    -0.222186    -1.994578     0.732405
Ir    -0.075278    -1.563680    -0.837012
 O     2.149593    -0.019653     1.252984
 O     3.194392    -1.564629    -0.474677
 O     2.447276     0.696363    -1.097413
 O    -1.951510     1.127719    -1.447281
 O    -3.261854    -0.549871    -0.203564
 O    -1.465934     0.756458     1.045801
 P    -1.683524    -0.053054    -0.388718
 P     1.887835    -0.604322    -0.233800
 C     0.029653    -1.116844    -2.716794
 O     0.061723    -0.814860    -3.820087
 C     1.348122    -0.303780     2.412360
 H     0.306938    -0.427686     2.077987
 C     1.441157     0.908703     3.310612
 H     1.083040     1.804799     2.785275
 H     2.481283     1.079602     3.628461
 H     0.821335     0.764850     4.207719
 C     1.832469    -1.582220     3.062088
 H     1.739533    -2.429505     2.365914
 H     2.885720    -1.486820     3.366947
 H     1.230416    -1.809491     3.954593
 C     4.470349    -1.241603    -0.071972
 C     5.000608    -1.883509     1.045737
 H     4.383491    -2.603597     1.584525
 C     5.239171    -0.329573    -0.795140
 H     4.807189     0.154599    -1.670548
 C     6.302716    -1.608857     1.453893
 H     6.743359    -2.099223     2.323674
 C     6.540746    -0.049090    -0.387194
 H     7.165941     0.659700    -0.933132
 C     7.055887    -0.689588     0.733296
 F     8.301976    -0.420496     1.122994
 C     2.021641     1.982331    -0.905503
 C     1.067479     2.530308    -1.763202
 H     0.625499     1.907706    -2.541502
 C     2.592575     2.757871     0.106741
 H     3.333436     2.302250     0.764156
 C     0.687164     3.862031    -1.614689
 H    -0.062067     4.315292    -2.264759
 C     2.210594     4.088061     0.260055
 H     2.639192     4.716867     1.042488
 C     1.261487     4.621687    -0.604282
 F     0.873149     5.889623    -0.439920
 C    -3.215885     1.672086    -1.885647
 H    -3.953325     1.526506    -1.082590
 C    -3.653864     0.917132    -3.122605
 H    -3.801858    -0.147367    -2.892103
 H    -2.890649     1.000068    -3.911419
 H    -4.601229     1.323200    -3.507311
 C    -3.004829     3.150585    -2.115885
 H    -2.650145     3.638450    -1.197501
 H    -2.263086     3.314449    -2.912319
 H    -3.949712     3.623335    -2.421392
 C    -3.598052    -1.718855     0.425891
 C    -4.450132    -2.598852    -0.239964
 H    -4.805126    -2.337699    -1.238196
 C    -3.120420    -2.026654     1.700574
 H    -2.456980    -1.328522     2.212963
 C    -4.825933    -3.794386     0.363957
 H    -5.489414    -4.501699    -0.136474
 C    -3.485819    -3.227773     2.303248
 H    -3.121230    -3.497866     3.295763
 C    -4.332692    -4.097884     1.628069
 F    -4.684590    -5.245361     2.206192
 C    -2.030213     1.981445     1.306723
 C    -3.374829     2.102537     1.655592
 H    -3.999653     1.210300     1.719865
 C    -1.214133     3.107522     1.224965
 H    -0.168735     2.977392     0.946471
 C    -3.905662     3.365793     1.910616
 H    -4.953724     3.496512     2.185724
 C    -1.738995     4.371245     1.476046
 H    -1.120766     5.266938     1.393056
 C    -3.083301     4.483136     1.814660
 F    -3.597281     5.688426     2.053129
