 102
scf done:    -2307.049276
 C     0.941099    -3.268175     0.284956
 H     1.604444    -3.640387    -0.503911
 H     1.352873    -3.403126     1.290445
 C    -0.484930    -3.375766     0.100593
 H    -0.862771    -3.828761    -0.822781
 H    -1.115338    -3.593339     0.968508
 H    -0.090407    -1.335473     1.573273
Ir     0.119515    -1.311385    -0.052170
 O     2.047448     0.681687     1.975891
 C     3.505977    -0.905146     0.460318
 C     2.168591     1.626809    -0.543080
 O    -1.192329     1.705990    -0.314576
 C    -2.948272    -0.162679    -1.419559
 C    -2.569804     0.168151     1.569635
 P    -1.693230     0.133832    -0.069836
 P     1.936192     0.069069     0.439106
 C     0.299737    -1.423259    -1.952371
 O     0.365589    -1.539083    -3.096471
 C     0.939444     1.321262     2.602199
 H     0.083852     1.311883     1.904333
 C     1.310694     2.762230     2.899332
 H     1.540969     3.310356     1.974466
 H     2.196006     2.802446     3.552504
 H     0.482463     3.279637     3.407441
 C     0.577482     0.538484     3.848385
 H     0.311500    -0.493837     3.580037
 H     1.434098     0.508371     4.539421
 H    -0.275156     1.000078     4.370099
 H     3.151128    -1.829573     0.951204
 C     4.675213    -0.379534     1.294066
 H     4.323294    -0.117627     2.301717
 H     5.080403     0.543248     0.850802
 C     5.783088    -1.428098     1.354114
 H     6.634701    -1.044205     1.939452
 H     5.410939    -2.317708     1.893978
 C     6.240957    -1.842610    -0.040744
 H     7.019013    -2.620690     0.023782
 H     6.711675    -0.974444    -0.537863
 C     5.072438    -2.329691    -0.891289
 H     4.671395    -3.265092    -0.461455
 H     5.412924    -2.576493    -1.910085
 C     3.951889    -1.296100    -0.949236
 H     4.314098    -0.400320    -1.484192
 H     3.097667    -1.687294    -1.524524
 H     1.332602     2.228773    -0.138120
 C     1.892785     1.483310    -2.038184
 H     0.898927     1.036509    -2.179414
 H     2.621153     0.795073    -2.499937
 C     1.955867     2.836256    -2.741965
 H     1.802768     2.703518    -3.825322
 H     1.117902     3.460682    -2.384214
 C     3.259059     3.576762    -2.467961
 H     3.252908     4.561386    -2.963277
 H     4.101201     3.012330    -2.908291
 C     3.491791     3.728988    -0.969754
 H     2.700034     4.369772    -0.538880
 H     4.447164     4.242965    -0.774557
 C     3.475701     2.371330    -0.275542
 H     4.319417     1.774732    -0.661541
 H     3.634576     2.480625     0.807829
 C    -1.924275     2.899111    -0.589007
 H    -2.952697     2.805487    -0.205301
 C    -1.975154     3.157186    -2.084069
 H    -2.504189     2.356155    -2.617585
 H    -0.956964     3.222813    -2.493463
 H    -2.495483     4.104078    -2.293431
 C    -1.233550     4.022929     0.159762
 H    -1.200492     3.811401     1.238334
 H    -0.197744     4.137357    -0.194681
 H    -1.759317     4.977109     0.006329
 H    -2.395877     0.228345    -2.296556
 C    -4.299680     0.555619    -1.339320
 H    -4.183088     1.631941    -1.154661
 H    -4.868009     0.154178    -0.483133
 C    -5.110906     0.345901    -2.616528
 H    -6.082202     0.860082    -2.531087
 H    -4.579964     0.824589    -3.459824
 C    -5.312362    -1.132564    -2.922528
 H    -5.855490    -1.258143    -3.873207
 H    -5.950619    -1.579003    -2.138373
 C    -3.980091    -1.870996    -2.961299
 H    -3.385448    -1.512941    -3.821245
 H    -4.140900    -2.948867    -3.124339
 C    -3.178341    -1.656210    -1.682761
 H    -3.720370    -2.101447    -0.831577
 H    -2.215837    -2.180980    -1.731540
 H    -1.701100     0.154575     2.249884
 C    -3.318883    -1.145862     1.806157
 H    -2.671885    -1.993521     1.532918
 H    -4.204575    -1.191372     1.148915
 C    -3.773790    -1.259112     3.256829
 H    -4.333307    -2.196922     3.404753
 H    -2.883306    -1.320937     3.907856
 C    -4.620781    -0.060438     3.667659
 H    -4.912706    -0.136933     4.727595
 H    -5.560842    -0.064886     3.085971
 C    -3.883359     1.249019     3.414592
 H    -2.998859     1.298777     4.075470
 H    -4.518792     2.109110     3.681782
 C    -3.420481     1.375481     1.963436
 H    -4.302458     1.461447     1.307331
 H    -2.841560     2.303367     1.850246
