 100
scf done:    -2456.449678
 C     0.521557     0.727675    -3.047122
 H     0.333030     0.066040    -3.899411
 H     0.063870     1.715136    -3.156522
 C     1.762181     0.614433    -2.338837
 H     2.493459    -0.127883    -2.672154
 H     2.218961     1.505023    -1.901785
 H     0.073973     1.368517    -0.595130
Ir     0.161575    -0.177968    -1.113285
 C    -2.808926     1.349822    -2.181179
 C    -3.136446    -1.464020    -1.720395
 C    -3.132060     0.274816     0.537198
 C    -0.118214    -1.072997     2.383812
 C     2.266295    -2.005089     1.130181
 C     1.956993     0.850656     1.812990
 P     1.058221    -0.582197     1.008215
 P    -2.180630    -0.005073    -1.046061
 C     0.504935    -1.937948    -1.752773
 O     0.867889    -2.960469    -2.148530
 H    -2.388172     1.019130    -3.147937
 C    -4.324839     1.453352    -2.312558
 H    -4.577174     2.245012    -3.036321
 H    -4.798237     0.529237    -2.672575
 H    -4.793110     1.735252    -1.357231
 C    -2.213396     2.719011    -1.857105
 H    -1.138678     2.655414    -1.641244
 H    -2.359212     3.396026    -2.714159
 H    -2.704620     3.173538    -0.984993
 H    -4.188842    -1.160235    -1.821542
 H    -2.732315    -1.621146    -2.732164
 C    -3.051921    -2.725869    -0.914884
 C    -2.142402    -3.734520    -1.246502
 H    -1.506728    -3.624314    -2.124847
 C    -3.888564    -2.926248     0.191706
 H    -4.635672    -2.168157     0.441413
 C    -2.048385    -4.885149    -0.467079
 H    -1.329174    -5.661699    -0.738369
 C    -3.805481    -4.070779     0.988228
 C    -4.678127    -4.228931     2.199603
 H    -4.972946    -5.277545     2.352221
 H    -4.146538    -3.905455     3.110795
 H    -5.592463    -3.623235     2.122107
 C    -2.865014    -5.050350     0.647386
 H    -2.783840    -5.955776     1.255186
 H    -4.191265     0.059262     0.330843
 H    -2.780696    -0.510100     1.225339
 C    -3.025457     1.634539     1.165659
 C    -1.797936     2.175019     1.566901
 H    -0.884449     1.610921     1.383761
 C    -4.179189     2.401833     1.358168
 H    -5.146504     1.988706     1.054311
 C    -1.738143     3.445526     2.130239
 H    -0.772355     3.860535     2.430598
 C    -4.139740     3.682659     1.920816
 C    -5.404297     4.464298     2.130864
 H    -5.206529     5.544515     2.181249
 H    -6.128259     4.285876     1.322119
 H    -5.893856     4.175384     3.075982
 C    -2.897703     4.199065     2.302578
 H    -2.839128     5.200137     2.738312
 H    -0.886576    -0.283062     2.339408
 C    -0.777539    -2.401975     2.039343
 H    -1.634036    -2.594498     2.704496
 H    -1.143153    -2.419396     1.002342
 H    -0.078122    -3.243748     2.161193
 C     0.464902    -1.081000     3.791714
 H     0.853744    -0.099962     4.098470
 H    -0.316529    -1.362981     4.515927
 H     1.277791    -1.816902     3.899898
 H     2.269047    -2.351359     2.174133
 H     1.828212    -2.807961     0.518856
 C     3.668723    -1.712169     0.698553
 C     4.014756    -1.646021    -0.655689
 H     3.256560    -1.840491    -1.414482
 C     4.663989    -1.485120     1.655804
 H     4.405590    -1.555274     2.717581
 C     5.318369    -1.335616    -1.028705
 H     5.578647    -1.282125    -2.088525
 C     5.980688    -1.172462     1.298824
 C     7.012791    -0.887441     2.351197
 H     6.842889    -1.487566     3.257149
 H     8.029008    -1.096108     1.987208
 H     6.983485     0.173416     2.652010
 C     6.294285    -1.096154    -0.062324
 H     7.316242    -0.854764    -0.367281
 H     1.194747     1.341154     2.438453
 H     2.711146     0.431582     2.496129
 C     2.569943     1.863816     0.891722
 C     3.883640     1.741320     0.431097
 H     4.498006     0.900306     0.752689
 C     1.812608     2.957829     0.459118
 H     0.787808     3.073385     0.817335
 C     4.408717     2.684910    -0.448946
 H     5.436969     2.575132    -0.802212
 C     2.313792     3.901003    -0.440662
 C     1.438811     5.011930    -0.944933
 H     0.976637     4.734330    -1.907286
 H     0.619642     5.230083    -0.244462
 H     2.009211     5.937810    -1.111323
 C     3.631406     3.752533    -0.889837
 H     4.048620     4.480083    -1.591703
