 100
scf done:    -2828.915342
 C    -0.665983    -3.608944    -0.847293
 H    -1.176424    -4.187468    -0.070181
 H    -1.227085    -3.553441    -1.784865
 C     0.770585    -3.594130    -0.880700
 H     1.332790    -4.155992    -0.127677
 H     1.280404    -3.532479    -1.846616
 H     0.004805    -1.322767    -1.794706
Ir     0.043934    -1.680558    -0.194734
 O    -1.675557     0.960069    -1.213452
 C    -3.334119    -1.120468    -0.755507
 C    -2.328827     0.441746     1.407839
 O     1.743672     0.752593     1.271321
 C     3.420170    -1.163904     0.378689
 C     2.348038     0.783708    -1.410186
 P     1.868182    -0.295763    -0.021224
 P    -1.804041    -0.325931    -0.165801
 C     0.097083    -2.163690     1.664873
 O     0.136134    -2.443515     2.777910
 C    -2.480939     2.122271    -1.140821
 H    -2.733698     2.401226    -2.178796
 H    -3.434972     1.912698    -0.626491
 C    -1.746409     3.254228    -0.451794
 H    -1.448484     2.916258     0.553669
 H    -0.809463     3.453535    -0.999868
 C    -2.577192     4.522928    -0.339778
 H    -3.509522     4.296216     0.207447
 H    -2.891572     4.852733    -1.346517
 C    -1.838579     5.651700     0.361206
 H    -1.543553     5.355762     1.380823
 H    -0.917775     5.922056    -0.179618
 H    -2.458094     6.557734     0.441656
 C    -3.919723    -2.143889     0.008382
 H    -3.488573    -2.410609     0.977526
 C    -3.877146    -0.830083    -2.005263
 H    -3.411028    -0.062954    -2.627066
 C    -5.031485    -2.826434    -0.452662
 H    -5.496266    -3.621164     0.133807
 C    -4.994499    -1.516525    -2.486473
 H    -5.391093    -1.264658    -3.470325
 C    -5.581545    -2.517329    -1.707391
 O    -6.660380    -3.236526    -2.075541
 C    -7.236747    -2.993822    -3.327148
 H    -6.525881    -3.183698    -4.150842
 H    -8.083775    -3.684870    -3.423861
 H    -7.610421    -1.957930    -3.414573
 C    -1.330849     0.855395     2.307697
 H    -0.279025     0.671534     2.068960
 C    -3.664210     0.698101     1.731850
 H    -4.459866     0.372087     1.057168
 C    -1.662613     1.518151     3.477496
 H    -0.894717     1.845065     4.181234
 C    -4.010731     1.357775     2.910601
 H    -5.063338     1.534781     3.132490
 C    -3.005726     1.777386     3.790536
 O    -3.233228     2.423509     4.948287
 C    -4.553664     2.705337     5.319768
 H    -5.150729     1.784789     5.443404
 H    -4.504659     3.228144     6.283258
 H    -5.056491     3.358317     4.584661
 C     2.607253     1.857180     1.476497
 H     2.791217     1.918903     2.563035
 H     3.587777     1.684263     0.999567
 C     1.990185     3.145555     0.970285
 H     1.740577     3.021447    -0.095677
 H     1.033497     3.310746     1.495155
 C     2.904934     4.348262     1.142375
 H     3.855717     4.155045     0.614621
 H     3.169551     4.466313     2.208589
 C     2.289833     5.637257     0.621871
 H     2.046090     5.551740    -0.449486
 H     1.354856     5.876220     1.153070
 H     2.971538     6.492738     0.742331
 C     4.084499    -1.908767    -0.609970
 H     3.716129    -1.893827    -1.639393
 C     3.891246    -1.229199     1.689547
 H     3.366253    -0.683125     2.476537
 C     5.198572    -2.668296    -0.297083
 H     5.724531    -3.248104    -1.057843
 C     5.010779    -1.995199     2.019213
 H     5.350127    -2.022961     3.054904
 C     5.674179    -2.717646     1.022984
 O     6.762573    -3.484053     1.233741
 C     7.270428    -3.590283     2.533294
 H     6.530961    -4.024241     3.229477
 H     8.139840    -4.257724     2.478602
 H     7.596814    -2.611956     2.929031
 C     3.668424     1.217948    -1.617839
 H     4.479006     0.812132    -1.007537
 C     1.340816     1.298559    -2.231416
 H     0.308221     0.973181    -2.082494
 C     3.964506     2.154097    -2.595834
 H     4.986885     2.496571    -2.766234
 C     1.625694     2.243632    -3.214740
 H     0.813056     2.626088    -3.832951
 C     2.942664     2.682938    -3.398821
 O     3.319114     3.592028    -4.316233
 C     2.344091     4.159984    -5.145870
 H     1.579722     4.706272    -4.565436
 H     2.864205     4.868244    -5.803059
 H     1.840329     3.399462    -5.767792
