  38
scf done:    -1369.054460
 C     0.452382     2.892432    -0.666637
 H     0.749659     3.515789     0.183520
 H     1.139487     2.968091    -1.515201
 C    -0.954655     2.697560    -0.924674
 H    -1.683417     3.177812    -0.263021
 H    -1.296667     2.628461    -1.961787
 H     0.245012     0.577842    -1.758884
Ir    -0.095687     0.871557    -0.177685
 O     1.774024    -1.768482    -0.774678
 C     3.389201     0.369342    -0.227927
 C     2.041665    -1.055465     1.852811
 O    -1.341786    -1.969701     0.909755
 C    -3.339515    -0.541824    -0.297563
 C    -1.383361    -1.935684    -1.837508
 P    -1.546680    -0.898198    -0.348181
 P     1.780224    -0.398682     0.167912
 C    -0.503213     1.267711     1.654284
 O    -0.741453     1.488464     2.756922
 C     2.776446    -2.747687    -0.711017
 H     3.780171    -2.339398    -0.923171
 H     2.804391    -3.254807     0.269261
 H     2.548703    -3.501323    -1.478612
 H     3.373567     0.677498    -1.282887
 H     3.480818     1.275884     0.387793
 H     4.253390    -0.285551    -0.038551
 H     2.063590    -0.204331     2.549046
 H     1.168925    -1.678314     2.098751
 H     2.970153    -1.635140     1.965410
 C    -2.053331    -3.174467     1.015131
 H    -3.146949    -3.021295     1.015913
 H    -1.799679    -3.880814     0.205260
 H    -1.775909    -3.638530     1.972527
 H    -3.573614    -0.052543     0.658752
 H    -3.552719     0.173507    -1.105184
 H    -3.973681    -1.432334    -0.427375
 H    -1.570152    -1.294657    -2.710684
 H    -0.340075    -2.279409    -1.878743
 H    -2.080264    -2.786899    -1.853761
