 100
scf done:    -2456.429152
 C    -0.045357    -1.806383    -2.835765
 H    -0.600193    -2.749079    -2.898415
 H    -0.339971    -1.084518    -3.605256
 C     1.330418    -1.833613    -2.408448
 H     1.785983    -2.797836    -2.157233
 H     2.038651    -1.132347    -2.859859
 H     0.378203     0.424871    -1.651260
Ir     0.109053    -0.973675    -0.858168
 C    -2.348330     1.149856    -2.072750
 C    -3.302927    -1.450648    -1.102926
 C    -2.679770     0.660348     0.937042
 C     0.856051     0.227059     2.446445
 C     2.910408    -1.441433     1.165287
 C     2.389592     1.498717     0.437874
 P     1.596637    -0.155699     0.764287
 P    -2.068077    -0.079567    -0.685138
 C    -0.154515    -2.650749     0.015707
 O    -0.284906    -3.679479     0.519920
 H    -1.877857     0.582019    -2.895022
 C    -3.787801     1.458416    -2.462648
 H    -3.786826     2.139015    -3.329485
 H    -4.342270     0.560864    -2.764317
 H    -4.341133     1.953402    -1.653222
 C    -1.553638     2.438184    -1.895161
 H    -0.528807     2.241511    -1.550318
 H    -1.483470     2.961576    -2.861729
 H    -2.052236     3.117884    -1.190744
 H    -3.475238    -1.351888    -2.184670
 H    -2.719753    -2.371506    -0.976821
 C    -4.602155    -1.548443    -0.362144
 C    -5.788076    -1.057488    -0.921456
 H    -5.761624    -0.613606    -1.918063
 C    -4.655533    -2.163006     0.909748
 C    -3.446270    -2.819942     1.509145
 H    -2.573348    -2.152386     1.547863
 H    -3.131834    -3.694374     0.917191
 H    -3.648532    -3.164683     2.532180
 C    -6.999063    -1.115095    -0.237119
 H    -7.906298    -0.720591    -0.700484
 C    -5.876385    -2.197355     1.592765
 H    -5.911912    -2.661929     2.581946
 C    -7.040911    -1.673086     1.037606
 H    -7.979889    -1.715576     1.594266
 H    -3.259600    -0.145582     1.408288
 H    -1.767853     0.773098     1.532825
 C    -3.490675     1.923538     0.976340
 C    -4.881621     1.862013     0.828516
 H    -5.354302     0.889225     0.681090
 C    -2.883661     3.174882     1.213394
 C    -1.412000     3.298452     1.490192
 H    -0.801331     2.741841     0.765104
 H    -1.165389     2.908506     2.492449
 H    -1.092122     4.349159     1.461074
 C    -5.667005     3.009977     0.855972
 H    -6.749535     2.930455     0.731419
 C    -3.686856     4.321189     1.231085
 H    -3.214243     5.292167     1.403810
 C    -5.064818     4.251474     1.045165
 H    -5.665909     5.163641     1.062632
 H     0.218417     1.095594     2.205875
 C    -0.042914    -0.907630     2.916975
 H    -0.572187    -0.622767     3.840061
 H    -0.788464    -1.170047     2.156080
 H     0.537085    -1.817873     3.140194
 C     1.818058     0.631741     3.556795
 H     2.568569     1.373684     3.250179
 H     1.254627     1.063006     4.399907
 H     2.353655    -0.244351     3.949766
 H     2.522715    -1.940096     2.068067
 H     2.805904    -2.168675     0.350042
 C     4.357390    -1.089217     1.357200
 C     4.874300    -0.859749     2.639000
 H     4.205817    -0.918708     3.499622
 C     5.238759    -1.067415     0.254722
 C     4.766495    -1.402518    -1.126857
 H     3.843768    -0.869615    -1.390734
 H     4.552923    -2.481072    -1.218450
 H     5.526188    -1.144592    -1.876439
 C     6.222204    -0.579833     2.846606
 H     6.594887    -0.408222     3.859069
 C     6.587696    -0.770566     0.477789
 H     7.263742    -0.739325    -0.380821
 C     7.084203    -0.523608     1.754635
 H     8.143891    -0.298078     1.896146
 H     1.504809     2.135195     0.265916
 H     2.839213     1.832409     1.379664
 C     3.371902     1.683655    -0.688266
 C     2.971588     1.500272    -2.017709
 H     1.941412     1.198417    -2.213800
 C     4.693754     2.102111    -0.424852
 C     5.168947     2.414755     0.964057
 H     5.056823     1.556704     1.642371
 H     4.608623     3.259043     1.399093
 H     6.231639     2.691030     0.958329
 C     3.859356     1.666625    -3.075915
 H     3.518501     1.506146    -4.101481
 C     5.575366     2.257463    -1.501234
 H     6.602785     2.569093    -1.293881
 C     5.176660     2.034389    -2.815813
 H     5.889852     2.163515    -3.633658
