  82
scf done:    -2593.201570
 C    -0.647446    -2.746450    -1.071286
 H    -1.320788    -3.331886    -0.435427
 H    -1.015308    -2.626127    -2.094658
 C     0.767994    -2.795680    -0.825742
 H     1.155045    -3.414818    -0.009471
 H     1.458066    -2.703606    -1.669015
 H     0.279551    -0.462632    -1.752134
Ir    -0.005084    -0.887507    -0.195397
 O    -1.555398     1.751186    -1.509136
 C    -3.186963    -0.387385    -1.251979
 C    -2.527247     1.340318     1.028308
 O     1.593139     1.234438     1.794596
 C     3.193875    -0.758946     0.938349
 C     2.556891     1.570275    -0.756069
 P     1.840821     0.347883     0.405281
 P    -1.816519     0.505077    -0.444337
 C    -0.402239    -1.468537     1.592195
 O    -0.676689    -1.825553     2.649419
 C    -2.430459     2.850787    -1.616862
 H    -3.459894     2.535674    -1.850766
 H    -2.448341     3.439472    -0.684474
 H    -2.049521     3.486954    -2.428750
 C    -3.445885    -0.242296    -2.611037
 H    -2.874214     0.494497    -3.179574
 C    -3.877023    -1.374253    -0.523731
 O    -3.543069    -1.464241     0.778473
 C    -4.037561    -2.515963     1.557000
 H    -5.130677    -2.442845     1.697326
 H    -3.541531    -2.437445     2.532335
 H    -3.798103    -3.496598     1.110291
 C    -4.401900    -1.039255    -3.246205
 H    -4.596132    -0.914327    -4.313601
 C    -4.830601    -2.175675    -1.151325
 H    -5.369464    -2.940310    -0.590620
 C    -5.092412    -1.997535    -2.512796
 H    -5.839547    -2.629372    -2.999312
 C    -1.644282     1.610364     2.077038
 H    -0.590922     1.337261     1.965478
 C    -3.883865     1.703616     1.177180
 O    -4.698091     1.475551     0.130427
 C    -6.082209     1.612950     0.272905
 H    -6.467831     0.995373     1.102495
 H    -6.524793     1.262411    -0.668274
 H    -6.378782     2.663327     0.441763
 C    -2.079462     2.213281     3.256757
 H    -1.368587     2.411442     4.061336
 C    -4.326948     2.285818     2.369311
 H    -5.376118     2.554554     2.494827
 C    -3.423323     2.538099     3.400927
 H    -3.784699     2.996970     4.324848
 C     2.507185     2.197668     2.266303
 H     3.502991     1.763851     2.449638
 H     2.614041     3.029991     1.550646
 H     2.101301     2.592858     3.208842
 C     3.355893    -1.071346     2.285567
 H     2.729548    -0.562841     3.022126
 C     3.962675    -1.445922    -0.019662
 O     3.737925    -1.096582    -1.300755
 C     4.370190    -1.795512    -2.332494
 H     5.468223    -1.679833    -2.294148
 H     3.999308    -1.366034    -3.271478
 H     4.122394    -2.871065    -2.305761
 C     4.282757    -2.033291     2.693950
 H     4.397077    -2.266609     3.754615
 C     4.888001    -2.410683     0.381070
 H     5.485625    -2.946704    -0.356966
 C     5.045923    -2.696303     1.739888
 H     5.770554    -3.455297     2.044766
 C     1.688369     2.123517    -1.699732
 H     0.642362     1.806640    -1.704083
 C     3.908885     1.977780    -0.759482
 O     4.709611     1.453122     0.186350
 C     6.092359     1.647566     0.123104
 H     6.504712     1.317162    -0.846128
 H     6.526908     1.034490     0.923098
 H     6.370140     2.703834     0.287319
 C     2.133546     3.056769    -2.635549
 H     1.434209     3.474235    -3.362707
 C     4.361938     2.896302    -1.712066
 H     5.407481     3.204962    -1.726726
 C     3.472142     3.431740    -2.642678
 H     3.840418     4.151714    -3.378141
