  84
scf done:    -2371.113598
 C     0.159460    -3.760163     0.074630
 H     0.643421    -4.216206    -0.795309
 H     0.698944    -3.931932     1.010949
 C    -1.272458    -3.637429     0.093913
 H    -1.843991    -4.014814    -0.761152
 H    -1.806483    -3.727624     1.044171
 H    -0.348971    -1.663358     1.459338
Ir    -0.373843    -1.690518    -0.180858
 O     1.553967     0.598792     1.265995
 C     2.940453    -1.668641     0.708293
 C     2.368258     0.296192    -1.316545
 O    -1.605021     1.207166    -1.098817
 C    -3.675723    -0.351795    -0.203473
 C    -1.887745     0.896783     1.627743
 P    -1.894155     0.018693     0.026392
 P     1.606942    -0.578099     0.105162
 C    -0.427252    -1.782251    -2.099759
 O    -0.461900    -1.830267    -3.246723
 C     2.641021     1.472771     1.522262
 H     2.711052     1.576075     2.618328
 H     3.593277     1.026502     1.184261
 C     2.444602     2.830910     0.877590
 H     2.254249     2.691196    -0.198228
 H     1.539377     3.300051     1.297846
 C     3.642590     3.749294     1.064468
 H     4.539005     3.260175     0.643792
 H     3.847734     3.879820     2.142169
 C     3.452489     5.107729     0.409375
 H     3.279247     5.000888    -0.673599
 H     2.582365     5.636187     0.830766
 H     4.333155     5.753338     0.545635
 C     3.558306    -2.571364    -0.167156
 C     3.244604    -1.720829     2.072137
 C     4.801966    -3.524858     1.671583
 C     4.174382    -2.643597     2.549615
 C     4.488425    -3.488981     0.311846
 H     3.301426    -2.560312    -1.230037
 H     4.967715    -4.186283    -0.379529
 H     5.529776    -4.248171     2.046889
 H     4.405735    -2.676343     3.617124
 H     2.735338    -1.044006     2.761841
 C     3.751627     0.419217    -1.499316
 C     1.499649     0.969321    -2.186858
 C     3.387350     1.889318    -3.382247
 C     2.008775     1.764747    -3.210488
 C     4.257252     1.211825    -2.528491
 H     4.440426    -0.106854    -0.834087
 H     5.337985     1.301392    -2.662976
 H     3.785832     2.511782    -4.187218
 H     1.322427     2.291046    -3.878230
 H     0.419305     0.891134    -2.033822
 C    -2.510330     2.164111    -1.627296
 H    -2.358688     2.150803    -2.720244
 H    -3.552391     1.858744    -1.443056
 C    -2.255076     3.556441    -1.085186
 H    -2.983598     4.240951    -1.554795
 H    -2.475583     3.571496    -0.004457
 C    -0.837695     4.054934    -1.334277
 H    -0.670760     4.140799    -2.422811
 H    -0.121535     3.290457    -0.990549
 C    -0.537152     5.380378    -0.655806
 H    -1.221821     6.174295    -0.995372
 H    -0.649262     5.298383     0.437970
 H     0.491153     5.714885    -0.859202
 C    -4.023605    -1.472135    -0.965654
 C    -4.692460     0.460250     0.320580
 C    -6.366109    -0.956068    -0.692665
 C    -6.030271     0.157789     0.077205
 C    -5.361730    -1.770077    -1.214189
 H    -3.226360    -2.117415    -1.342854
 H    -5.620999    -2.649055    -1.808968
 H    -7.416145    -1.193921    -0.879994
 H    -6.815289     0.794187     0.492809
 H    -4.435696     1.328761     0.932618
 C    -1.141302     2.064761     1.791458
 C    -2.518377     0.325503     2.739855
 C    -1.694065     2.112703     4.141591
 C    -2.424747     0.933517     3.988610
 C    -1.049952     2.674288     3.041063
 H    -0.611515     2.483275     0.936633
 H    -0.464368     3.590304     3.155666
 H    -1.622139     2.589055     5.122357
 H    -2.923734     0.482346     4.849629
 H    -3.082866    -0.604131     2.628360
