  90
scf done:    -2449.689700
 C     0.479101     1.585107    -2.994000
 H     0.262749     1.104773    -3.953045
 H    -0.148567     2.456720    -2.790758
 C     1.814265     1.541819    -2.471578
 H     2.597337     1.041607    -3.051619
 H     2.170577     2.389112    -1.880247
 H     0.274838     1.571253    -0.435510
Ir     0.527394     0.222026    -1.328760
 O    -2.613536     0.889674    -1.860082
 C    -2.395078    -1.802811    -1.243160
 C    -2.237425     0.342323     0.849009
 O     0.514178    -0.754605     1.826768
 C     2.489563    -2.149525     0.510822
 C     2.849976     0.597813     1.352403
 P     1.589912    -0.499884     0.566036
 P    -1.713348    -0.091876    -0.884233
 C     0.833100    -1.335106    -2.400156
 O     1.014722    -2.295642    -3.009702
 C    -3.992970     0.773719    -2.119043
 H    -4.183949     0.009412    -2.892916
 H    -4.579077     0.538055    -1.218842
 H    -4.332242     1.744655    -2.506753
 H    -2.762306    -1.736340    -2.279017
 H    -1.502441    -2.441358    -1.279886
 C    -3.433279    -2.391869    -0.337965
 C    -4.793631    -2.287783    -0.648906
 H    -5.088997    -1.790776    -1.575001
 C    -3.049929    -3.071613     0.839493
 C    -1.602767    -3.302526     1.168580
 H    -1.017740    -2.371106     1.214413
 H    -1.122810    -3.939411     0.406223
 H    -1.499291    -3.813200     2.136235
 C    -5.775265    -2.798918     0.194634
 H    -6.829871    -2.698090    -0.071408
 C    -4.049134    -3.568730     1.683554
 H    -3.753821    -4.088297     2.599339
 C    -5.401465    -3.430685     1.377608
 H    -6.158876    -3.829265     2.056538
 H    -2.244715    -0.599465     1.413482
 H    -1.386845     0.925490     1.226249
 C    -3.530702     1.076287     1.025772
 C    -4.665089     0.388970     1.472649
 H    -4.582438    -0.675595     1.703877
 C    -3.618621     2.457940     0.748829
 C    -2.419757     3.242771     0.304005
 H    -2.052637     2.888628    -0.671001
 H    -1.577564     3.139349     1.006153
 H    -2.657344     4.311948     0.217572
 C    -5.892118     1.031780     1.609659
 H    -6.765408     0.471096     1.951367
 C    -4.859840     3.086971     0.895418
 H    -4.935262     4.156278     0.678453
 C    -5.992032     2.388202     1.309633
 H    -6.948022     2.908185     1.409245
 C     0.891507    -1.094703     3.134089
 H     1.597543    -1.943000     3.165521
 H     1.349058    -0.243924     3.668191
 H    -0.021016    -1.388813     3.673069
 H     1.991209    -2.792009     1.252094
 H     2.257291    -2.572651    -0.476244
 C     3.968284    -2.118717     0.758238
 C     4.472606    -2.433811     2.024183
 H     3.778789    -2.748060     2.809500
 C     4.863199    -1.727194    -0.261016
 C     4.368275    -1.386748    -1.635955
 H     3.601580    -0.594560    -1.616161
 H     3.896873    -2.256154    -2.123025
 H     5.191262    -1.048436    -2.279822
 C     5.834413    -2.358110     2.305190
 H     6.202322    -2.609331     3.302641
 C     6.227637    -1.655705     0.037029
 H     6.921980    -1.350863    -0.750774
 C     6.717433    -1.961317     1.305278
 H     7.788684    -1.893022     1.508381
 H     3.089049     0.201764     2.353479
 H     3.761534     0.451098     0.760563
 C     2.461477     2.044965     1.405978
 C     1.347760     2.443886     2.153847
 H     0.767316     1.688776     2.688571
 C     3.198720     3.014658     0.697243
 C     4.417595     2.647073    -0.101188
 H     4.183287     1.913147    -0.887712
 H     5.202021     2.203797     0.533620
 H     4.845687     3.532667    -0.590287
 C     0.951629     3.776559     2.211141
 H     0.080687     4.063302     2.805217
 C     2.779095     4.348510     0.754880
 H     3.344983     5.102270     0.200525
 C     1.668151     4.734986     1.499709
 H     1.365743     5.784488     1.525673
