  98
scf done:    -2154.710021
 C     0.274373    -3.359663     0.217519
 H     0.904712    -3.776146    -0.575862
 H     0.654555    -3.556133     1.224755
 C    -1.148337    -3.296844     0.011274
 H    -1.566646    -3.667182    -0.930767
 H    -1.806953    -3.462196     0.869198
 H    -0.578257    -1.292160     1.531927
Ir    -0.309630    -1.308037    -0.087787
 O     2.031321    -0.399768     2.034717
 C     3.085342    -1.188463    -0.439493
 C     2.055560     1.468135     0.053356
 O    -1.809902     1.363417    -1.376699
 C    -3.662813    -0.497833    -0.549698
 C    -2.376372     1.256965     1.297691
 P    -2.010030     0.227758    -0.177916
 P     1.709019    -0.299077     0.418972
 C    -0.071470    -1.320820    -1.991807
 O     0.064339    -1.295023    -3.133698
 C     3.249370    -0.013736     2.664371
 H     3.881431     0.544500     1.951251
 C     3.987624    -1.262423     3.107949
 H     4.224918    -1.906589     2.248960
 H     3.360477    -1.841213     3.802595
 H     4.929092    -1.004081     3.616220
 C     2.903648     0.908058     3.816468
 H     2.406269     1.815880     3.447020
 H     2.218911     0.400147     4.512563
 H     3.808051     1.206528     4.367610
 H     2.688756    -1.376451    -1.451566
 H     3.096784    -2.177636     0.045885
 C     4.477685    -0.582254    -0.546072
 H     4.406515     0.421607    -0.997530
 H     4.923887    -0.436825     0.452470
 C     5.452321    -1.414748    -1.386462
 H     4.982970    -1.571023    -2.376201
 C     6.753646    -0.650144    -1.599685
 H     6.574867     0.325560    -2.078154
 H     7.452381    -1.214506    -2.236380
 H     7.259614    -0.461973    -0.637752
 C     5.721137    -2.784287    -0.772484
 H     6.430992    -3.360744    -1.385448
 H     4.804955    -3.385909    -0.678619
 H     6.160197    -2.681113     0.234612
 H     3.108035     1.703091     0.287519
 H     1.433773     2.038548     0.758626
 C     1.725823     1.837219    -1.386530
 H     2.194875     1.113325    -2.076727
 H     0.637902     1.736276    -1.542486
 C     2.178968     3.243268    -1.789844
 H     3.280446     3.281527    -1.684119
 C     1.842865     3.504122    -3.253427
 H     2.292299     2.743595    -3.910714
 H     2.203064     4.491467    -3.581796
 H     0.752720     3.473858    -3.414855
 C     1.590439     4.324500    -0.889396
 H     1.904644     5.327586    -1.217166
 H     1.905705     4.207175     0.158492
 H     0.489343     4.294967    -0.911613
 C    -2.821504     2.264463    -1.817737
 H    -3.689204     2.216819    -1.133609
 C    -3.264305     1.847962    -3.207574
 H    -3.682061     0.831204    -3.197928
 H    -2.400511     1.851601    -3.889546
 H    -4.028159     2.534432    -3.603119
 C    -2.265079     3.673382    -1.776121
 H    -1.961427     3.942346    -0.754576
 H    -1.385240     3.754990    -2.431465
 H    -3.018452     4.399934    -2.115409
 H    -3.505607    -1.103569    -1.457715
 H    -4.394328     0.288248    -0.796616
 C    -4.166113    -1.379632     0.589341
 H    -3.304921    -1.893517     1.046917
 H    -4.610158    -0.748765     1.380323
 C    -5.189855    -2.433802     0.164366
 H    -4.704153    -3.060641    -0.607141
 C    -5.543074    -3.334389     1.341655
 H    -4.645077    -3.812472     1.762809
 H    -6.241448    -4.131634     1.043217
 H    -6.023644    -2.756225     2.148837
 C    -6.440182    -1.814091    -0.449055
 H    -7.163742    -2.588741    -0.747041
 H    -6.208854    -1.217364    -1.344585
 H    -6.943092    -1.150655     0.275264
 H    -2.718424     0.564458     2.083758
 H    -3.230394     1.910994     1.051978
 C    -1.174734     2.054106     1.779164
 H    -0.406395     1.342098     2.122723
 H    -0.730567     2.597023     0.925659
 C    -1.478172     3.059428     2.893136
 H    -2.023985     2.520643     3.690464
 C    -0.181503     3.592120     3.491265
 H     0.424297     2.779110     3.918304
 H    -0.374321     4.325358     4.289718
 H     0.426502     4.094366     2.719230
 C    -2.358014     4.207757     2.410520
 H    -2.597015     4.900238     3.232384
 H    -3.312576     3.856309     1.990282
 H    -1.841386     4.789150     1.627985
