  86
scf done:    -1997.565792
 C     0.700533    -2.566483    -1.773984
 H     0.160754    -3.458841    -1.437986
 H     0.471449    -2.292052    -2.808613
 C     2.030088    -2.327616    -1.270073
 H     2.463884    -3.042977    -0.563105
 H     2.771701    -1.876841    -1.936390
 H     1.055078    -0.014016    -1.725228
Ir     0.652142    -0.905896    -0.404855
 O    -1.745230     1.189094    -1.688625
 C    -2.744174    -1.276429    -1.204930
 C    -2.253229     0.707830     0.846060
 O     0.796650     1.265891     2.086343
 C     3.316044     0.332821     1.574610
 C     2.082313     2.312744    -0.102796
 P     1.707306     0.750211     0.789083
 P    -1.492190    -0.063726    -0.621558
 C     0.324521    -1.977623     1.148991
 O     0.163491    -2.608788     2.096547
 C    -1.308816     1.089972    -3.021188
 H    -0.269796     0.721223    -3.075516
 H    -1.956134     0.417179    -3.610994
 H    -1.360319     2.096277    -3.461490
 H    -3.683417    -0.737646    -1.415442
 H    -2.362670    -1.662099    -2.165207
 C    -2.966863    -2.431649    -0.240227
 H    -1.993461    -2.887484     0.007011
 H    -3.375739    -2.052050     0.713035
 C    -3.897217    -3.503198    -0.791056
 H    -3.482264    -3.889031    -1.739962
 H    -4.870613    -3.049074    -1.052216
 C    -4.119923    -4.661588     0.171095
 H    -3.142881    -5.104467     0.433127
 H    -4.531731    -4.270369     1.118375
 C    -5.039912    -5.738066    -0.381413
 H    -5.181231    -6.560170     0.336470
 H    -4.633621    -6.172955    -1.308851
 H    -6.035445    -5.329826    -0.619779
 H    -2.221000    -0.065470     1.633051
 H    -1.526451     1.469741     1.171243
 C    -3.647074     1.290875     0.677337
 H    -3.648864     1.970947    -0.190213
 H    -4.366588     0.487911     0.439070
 C    -4.125528     2.035854     1.915995
 H    -3.408489     2.843365     2.152048
 H    -4.103726     1.355071     2.786700
 C    -5.520997     2.626252     1.770079
 H    -5.537484     3.298013     0.893581
 H    -6.233674     1.815368     1.536228
 C    -5.991028     3.380377     3.003383
 H    -7.001806     3.794147     2.867648
 H    -5.317055     4.219900     3.238843
 H    -6.016656     2.723364     3.887755
 C     1.251572     2.215756     3.015259
 H     2.008667     1.794946     3.698723
 H     1.677179     3.112544     2.530893
 H     0.385384     2.530936     3.615225
 H     3.679220     1.186475     2.172687
 H     3.099408    -0.492007     2.275189
 C     4.367473    -0.098996     0.560941
 H     3.931465    -0.875599    -0.088610
 H     4.616837     0.748331    -0.102137
 C     5.643254    -0.622068     1.205335
 H     5.392378    -1.471871     1.865984
 H     6.073247     0.153605     1.865656
 C     6.691250    -1.063173     0.193131
 H     6.251521    -1.832585    -0.465665
 H     6.937160    -0.212174    -0.466738
 C     7.961904    -1.599293     0.832253
 H     8.698348    -1.909782     0.075641
 H     7.750304    -2.473849     1.468394
 H     8.440846    -0.838638     1.469940
 H     2.801476     2.923679     0.470299
 H     2.594893     1.994361    -1.025189
 C     0.821460     3.097235    -0.438224
 H     0.050197     2.404988    -0.809848
 H     0.404702     3.537154     0.484378
 C     1.033561     4.192799    -1.471816
 H     1.419867     3.738267    -2.402558
 H     1.819561     4.891757    -1.130705
 C    -0.240612     4.967495    -1.780053
 H    -1.029098     4.252931    -2.075344
 H    -0.607238     5.441868    -0.852380
 C    -0.064637     6.021966    -2.860261
 H    -1.001507     6.565468    -3.055847
 H     0.261494     5.569192    -3.810673
 H     0.697205     6.765220    -2.574337
