  42
scf done:    -1669.797054
 C    -1.231954    -2.566555     0.136593
 H    -0.790685    -3.325939     0.786417
 H    -2.214929    -2.220282     0.468445
 C    -0.894578    -2.525471    -1.238924
 H    -0.188042    -3.250227    -1.648688
 H    -1.610502    -2.111384    -1.951661
 H     0.571987    -0.661765    -1.809389
Ir     0.176278    -0.891130    -0.227519
 O    -2.895117     0.047545    -1.087993
 O    -2.606167     0.326903     1.320062
 O    -1.459288     2.003267    -0.202187
 O     1.553729     1.824760     1.227853
 O     3.129016     0.589565    -0.170865
 O     1.292500     2.025561    -1.219250
 P     1.528414     0.894552    -0.102806
 P    -1.687834     0.398538    -0.052302
 C     1.449076    -1.942712     0.720167
 O     2.230684    -2.604032     1.256501
 C    -4.278650     0.009419    -0.806153
 H    -4.489611    -0.586013     0.093663
 H    -4.695125     1.019129    -0.661006
 H    -4.766858    -0.452639    -1.675189
 C    -1.976151     0.312832     2.580918
 H    -1.176180    -0.447768     2.607432
 H    -1.534137     1.295607     2.817975
 H    -2.743485     0.073397     3.329814
 C    -2.525897     2.924390    -0.195597
 H    -3.098479     2.869376    -1.135740
 H    -3.205227     2.749943     0.655009
 H    -2.092492     3.929772    -0.105992
 C     1.851721     1.254178     2.484353
 H     1.249948     0.344874     2.654096
 H     2.919892     0.994805     2.552361
 H     1.607677     2.003038     3.249609
 C     3.684677    -0.198621    -1.206092
 H     3.314761    -1.234243    -1.163172
 H     3.444568     0.221216    -2.196086
 H     4.773400    -0.191772    -1.062895
 C     1.853877     3.318642    -1.095466
 H     1.295708     3.911238    -0.356010
 H     2.911809     3.271239    -0.792834
 H     1.778269     3.793927    -2.082344
