  88
scf done:    -2671.920971
 C    -0.580733    -3.328929    -2.335638
 H    -1.079810    -4.212600    -1.926527
 H    -1.121307    -2.860961    -3.162404
 C     0.848962    -3.248721    -2.289602
 H     1.418360    -4.070918    -1.845574
 H     1.381964    -2.722328    -3.085818
 H    -0.031912    -0.854865    -2.102420
Ir     0.006062    -1.884310    -0.837700
 O    -3.026752    -0.649657    -1.295208
 O    -2.592652    -1.526432     1.115737
 O    -1.850582     0.710985     0.488374
 O     1.562300     0.333983     1.226446
 O     3.050223    -1.537178     0.349990
 O     2.315539     0.466957    -1.130630
 P     1.735396    -0.637192    -0.079265
 P    -1.867222    -0.815872    -0.183562
 C     0.024280    -3.203283     0.585643
 O     0.027426    -3.982175     1.422287
 C    -4.114758     0.279375    -1.285202
 H    -5.041057    -0.312588    -1.349253
 H    -4.143496     0.825099    -0.329525
 C    -3.995488     1.241850    -2.445595
 H    -3.002101     1.716440    -2.408079
 H    -4.036803     0.676202    -3.391745
 C    -5.071750     2.317299    -2.416738
 H    -5.034579     2.833161    -1.440819
 H    -6.070484     1.848725    -2.474346
 C    -4.914321     3.338642    -3.531303
 H    -3.942319     3.851969    -3.456868
 H    -4.960935     2.860437    -4.522742
 H    -5.702655     4.105555    -3.493424
 C    -3.817409    -1.160037     1.617594
 C    -4.955935    -1.834803     1.179395
 H    -4.845939    -2.626644     0.436126
 C    -3.911038    -0.149219     2.574271
 H    -3.002016     0.355144     2.903070
 C    -6.201620    -1.482208     1.694118
 H    -7.095238    -2.009530     1.351869
 C    -5.161813     0.195051     3.082120
 H    -5.238965     0.986314     3.831735
 C    -6.309495    -0.464510     2.641595
 H    -7.287551    -0.190112     3.042730
 C    -1.578584     1.906393    -0.112170
 C    -2.268789     3.017063     0.380418
 H    -2.988463     2.871034     1.188484
 C    -0.654684     2.052101    -1.147443
 H    -0.115068     1.187249    -1.533169
 C    -2.031428     4.275714    -0.163750
 H    -2.574690     5.140543     0.224735
 C    -0.426418     3.319460    -1.682735
 H     0.304982     3.428107    -2.486784
 C    -1.109479     4.433769    -1.199698
 H    -0.922990     5.421896    -1.625412
 C     1.008006    -0.195634     2.426606
 H     0.010904    -0.619068     2.212233
 H     1.650417    -1.013354     2.798008
 C     0.912039     0.916130     3.446217
 H     0.559480     0.472202     4.393509
 H     1.925252     1.307261     3.646676
 C    -0.008016     2.051940     3.025155
 H    -1.016634     1.645497     2.842171
 H     0.327143     2.439783     2.050349
 C    -0.074137     3.183648     4.035166
 H    -0.444230     2.833820     5.012759
 H     0.919727     3.629761     4.201998
 H    -0.743941     3.986816     3.692136
 C     4.333258    -1.090207     0.558664
 C     4.634831    -0.095078     1.489645
 H     3.834618     0.373617     2.060873
 C     5.343828    -1.690032    -0.191879
 H     5.072029    -2.471529    -0.903828
 C     5.956093     0.319046     1.637594
 H     6.189076     1.112755     2.350978
 C     6.662300    -1.273759    -0.027334
 H     7.452823    -1.741883    -0.618882
 C     6.972683    -0.262489     0.881521
 H     8.006066     0.069292     1.002956
 C     3.202986     1.501217    -0.916886
 C     4.449686     1.431064    -1.534624
 H     4.697526     0.550257    -2.128278
 C     2.840801     2.611477    -0.156460
 H     1.851030     2.651586     0.295645
 C     5.360413     2.467594    -1.355259
 H     6.344522     2.404699    -1.825096
 C     3.761862     3.643200     0.014314
 H     3.483920     4.512647     0.615024
 C     5.023542     3.573639    -0.574720
 H     5.741893     4.383891    -0.431722
