  92
scf done:    -2599.954355
 C    -1.269333    -2.527646    -1.796459
 H    -1.950484    -3.265316    -1.359801
 H    -1.757742    -1.854137    -2.503494
 C     0.109140    -2.876340    -1.995651
 H     0.455785    -3.873821    -1.703579
 H     0.615693    -2.492910    -2.886946
 H     0.098120    -0.339585    -1.559156
Ir    -0.072979    -1.457374    -0.371178
 C    -1.523571     0.624235     2.263739
 C    -1.721768     1.669922    -0.433017
 C    -3.390645    -0.577208     0.449576
 C     2.945696    -1.971161     1.387507
 C     3.284895    -0.323975    -0.942639
 C     1.973586     0.781404     1.436539
 P     2.033523    -0.697781     0.357237
 P    -1.660991     0.078690     0.478153
 C    -0.201668    -2.831523     0.948064
 O    -0.243368    -3.690543     1.716923
 H    -0.616011     1.250108     2.271517
 C    -2.708845     1.430011     2.781526
 H    -2.479643     1.822497     3.785698
 H    -2.967498     2.274307     2.129810
 H    -3.601969     0.792141     2.869844
 C    -1.253936    -0.576737     3.157955
 H    -0.345404    -1.110573     2.852892
 H    -1.122347    -0.243529     4.199610
 H    -2.091961    -1.292004     3.138215
 C    -1.300753     2.871951     0.127927
 H    -0.934950     2.892659     1.153840
 C    -2.188371     1.682843    -1.765079
 O    -2.629682     0.508164    -2.243863
 C    -3.140732     0.433687    -3.542409
 H    -4.023100     1.085586    -3.671250
 H    -3.442580    -0.609504    -3.698748
 H    -2.381743     0.703708    -4.297038
 C    -1.341171     4.069799    -0.591271
 H    -1.020820     4.999817    -0.115844
 C    -2.213524     2.872274    -2.496536
 H    -2.572115     2.879225    -3.525967
 C    -1.794105     4.064997    -1.904348
 H    -1.829365     4.991879    -2.482283
 C    -3.553407    -1.947792     0.658053
 H    -2.658221    -2.560365     0.767045
 C    -4.555666     0.205589     0.283437
 O    -4.390881     1.530575     0.115798
 C    -5.489336     2.352366    -0.144768
 H    -6.028659     2.039361    -1.056272
 H    -5.087394     3.362165    -0.298410
 H    -6.200729     2.371540     0.699947
 C    -4.810382    -2.549878     0.707195
 H    -4.894437    -3.624984     0.876944
 C    -5.818865    -0.396307     0.304246
 H    -6.715616     0.207404     0.163444
 C    -5.942862    -1.767942     0.519222
 H    -6.938019    -2.219181     0.538097
 H     2.235097    -2.189614     2.204858
 C     3.123987    -3.245236     0.566678
 H     3.515092    -4.051570     1.206632
 H     2.181649    -3.583527     0.116086
 H     3.845468    -3.082110    -0.249304
 C     4.279240    -1.530457     1.976739
 H     4.212887    -0.588351     2.535764
 H     4.657264    -2.312587     2.655399
 H     5.026767    -1.394546     1.181167
 C     3.106670    -0.933999    -2.182913
 H     2.210859    -1.541200    -2.317870
 C     4.422688     0.492405    -0.757601
 O     4.564760     1.085870     0.443000
 C     5.650058     1.930044     0.686508
 H     6.613271     1.394489     0.613969
 H     5.524940     2.305935     1.710083
 H     5.668463     2.788035    -0.008737
 C     4.022076    -0.771261    -3.223502
 H     3.854791    -1.267838    -4.181382
 C     5.337356     0.669121    -1.800667
 H     6.214158     1.301971    -1.661811
 C     5.136262     0.034203    -3.026655
 H     5.863625     0.180408    -3.829219
 C     1.935253     0.685455     2.826858
 H     2.001181    -0.294573     3.302666
 C     1.867489     2.059077     0.847922
 O     1.873084     2.081617    -0.492741
 C     2.065629     3.283774    -1.181695
 H     1.199987     3.957171    -1.076073
 H     2.177106     3.015799    -2.239824
 H     2.980795     3.798733    -0.839324
 C     1.806397     1.819618     3.631831
 H     1.773648     1.716732     4.718306
 C     1.764855     3.200125     1.647221
 H     1.693923     4.186434     1.187028
 C     1.728528     3.074682     3.037460
 H     1.635167     3.971707     3.654437
