  88
scf done:    -3068.696248
 C     1.076715    -0.548197    -3.152139
 H     1.119283    -1.591094    -3.480524
 H     0.363736     0.060017    -3.714747
 C     2.250808     0.064582    -2.606158
 H     3.175244    -0.515491    -2.521630
 H     2.418785     1.133767    -2.759262
 H     0.258062     1.163079    -1.433927
Ir     0.828517    -0.309105    -1.016866
 O    -2.114686     0.578412     0.218230
 O    -2.330588    -1.035994    -1.748704
 O    -1.755130    -1.828542     0.617766
 O     1.333660    -0.177055     2.242007
 O     3.047011     1.274954     1.024592
 O     0.762527     2.076749     1.416294
 P     1.490220     0.696780     0.891259
 P    -1.334867    -0.652255    -0.480281
 C     1.634999    -2.041565    -0.672437
 O     2.182506    -3.033562    -0.514609
 C    -3.135095     0.521446     1.221462
 H    -4.042074     0.058896     0.800086
 H    -2.784977    -0.109574     2.050546
 C    -3.407052     1.932804     1.684754
 H    -4.072688     1.877803     2.563468
 H    -2.457064     2.368090     2.041243
 C    -4.029331     2.826582     0.620287
 H    -5.019924     2.422915     0.347264
 H    -3.423822     2.765651    -0.299255
 C    -4.152461     4.275911     1.058672
 H    -4.760653     4.369323     1.972853
 H    -3.162317     4.708776     1.274175
 H    -4.624424     4.896161     0.281760
 C    -3.698153    -0.941075    -1.662325
 C    -4.324463     0.210240    -2.138716
 H    -3.711709     1.005702    -2.565451
 C    -4.450390    -1.979220    -1.111452
 H    -3.947285    -2.872074    -0.738502
 C    -5.707970     0.334471    -2.054171
 H    -6.223808     1.225389    -2.416588
 C    -5.835312    -1.859235    -1.025554
 H    -6.449324    -2.654062    -0.598538
 C    -6.446591    -0.701989    -1.493907
 F    -7.770567    -0.584844    -1.408246
 C    -1.091319    -3.027060     0.658354
 C    -1.111407    -3.896682    -0.433977
 H    -1.639291    -3.608684    -1.344968
 C    -0.393868    -3.361830     1.818157
 H    -0.371677    -2.650846     2.644145
 C    -0.435841    -5.111836    -0.361456
 H    -0.425665    -5.807213    -1.202300
 C     0.276651    -4.577878     1.894713
 H     0.834538    -4.865427     2.787440
 C     0.249422    -5.437385     0.802145
 F     0.898382    -6.597880     0.872570
 C     1.647270     0.309895     3.550296
 H     2.088150    -0.547875     4.082777
 H     2.415487     1.096063     3.481317
 C     0.409848     0.809617     4.267304
 H     0.710735     1.102104     5.288907
 H     0.056305     1.725324     3.767461
 C    -0.717095    -0.211246     4.323995
 H    -0.361277    -1.125867     4.832064
 H    -0.962792    -0.513107     3.292909
 C    -1.963730     0.312149     5.017467
 H    -1.757975     0.589028     6.063832
 H    -2.349918     1.211270     4.511259
 H    -2.768776    -0.438376     5.024634
 C     4.084947     0.679148     0.356906
 C     4.818107     1.441411    -0.550809
 H     4.535406     2.482268    -0.716862
 C     4.405514    -0.659978     0.576905
 H     3.822617    -1.245038     1.290850
 C     5.879806     0.865367    -1.240890
 H     6.469755     1.437053    -1.959327
 C     5.457418    -1.245572    -0.122907
 H     5.719414    -2.295128     0.020281
 C     6.182385    -0.474544    -1.023022
 F     7.192448    -1.029885    -1.691420
 C     0.704069     3.223972     0.660811
 C    -0.429970     3.472625    -0.109867
 H    -1.218743     2.720609    -0.133555
 C     1.753045     4.141044     0.705727
 H     2.630924     3.915383     1.312238
 C    -0.525988     4.658581    -0.832122
 H    -1.403254     4.883880    -1.441212
 C     1.661507     5.326100    -0.020451
 H     2.461804     6.068037    -0.003610
 C     0.522100     5.570117    -0.778726
 F     0.432984     6.706186    -1.469908
