  78
scf done:    -2292.554900
 C     0.144399    -2.224544    -3.124536
 H    -0.149825    -3.278025    -3.087781
 H    -0.369020    -1.657439    -3.905566
 C     1.483699    -1.855973    -2.749582
 H     2.185058    -2.635955    -2.434895
 H     1.967602    -1.014977    -3.254921
 H    -0.006566     0.107685    -2.157165
Ir     0.106346    -1.223277    -1.218302
 O    -3.148986    -1.192001    -1.819484
 C    -2.822208    -0.935798     0.905427
 C    -2.290140     1.216660    -0.872328
 O     0.335075     0.206036     1.751906
 C     2.747261    -0.755854     0.968182
 C     1.755569     1.744147    -0.024194
 P     1.220171     0.031418     0.349808
 P    -2.057564    -0.593546    -0.729809
 C     0.318954    -2.878041    -0.266491
 O     0.498912    -3.880202     0.266584
 C    -4.539532    -1.012905    -1.701792
 H    -4.944678    -1.544712    -0.824947
 H    -4.816164     0.053489    -1.625298
 H    -4.996699    -1.429341    -2.610606
 C    -2.309514    -1.962064     1.701040
 H    -1.445611    -2.531698     1.360506
 C    -3.917830    -0.196871     1.374080
 H    -4.310297     0.627279     0.772715
 C    -2.888221    -2.243878     2.936647
 H    -2.478288    -3.044468     3.556998
 C    -4.510244    -0.466312     2.610370
 C    -5.695927     0.322463     3.086508
 H    -5.806035     1.260943     2.524903
 H    -6.629258    -0.251051     2.960275
 H    -5.611642     0.570995     4.155184
 C    -3.976633    -1.502906     3.386980
 H    -4.419015    -1.725597     4.362379
 C    -2.643248     1.781626    -2.101810
 H    -2.889327     1.132580    -2.945622
 C    -1.935037     2.049642     0.192562
 H    -1.629483     1.599121     1.140122
 C    -2.654883     3.167476    -2.243713
 H    -2.940868     3.612740    -3.200031
 C    -1.916078     3.440452     0.053935
 C    -1.428383     4.306896     1.176943
 H    -1.857596     5.318216     1.130449
 H    -1.671031     3.871643     2.157365
 H    -0.330599     4.409484     1.122735
 C    -2.293980     3.989204    -1.176767
 H    -2.293547     5.075448    -1.304028
 C     0.736140     0.998757     2.842408
 H     1.747205     0.735596     3.198327
 H     0.720772     2.072433     2.589602
 H     0.018355     0.813378     3.654658
 C     2.685611    -1.619807     2.065931
 H     1.743997    -1.746509     2.605427
 C     3.947344    -0.625346     0.259767
 H     3.989099     0.037292    -0.609840
 C     3.824391    -2.322262     2.455076
 H     3.780040    -2.993327     3.316418
 C     5.093302    -1.329576     0.636498
 C     6.366245    -1.206136    -0.149703
 H     6.473383    -2.046987    -0.854984
 H     6.387552    -0.278678    -0.739247
 H     7.249056    -1.217788     0.506714
 C     5.016016    -2.176174     1.750849
 H     5.903726    -2.732166     2.065284
 C     1.111569     2.457215    -1.037902
 H     0.349818     1.960191    -1.642032
 C     2.747393     2.382461     0.736947
 H     3.272810     1.824466     1.516586
 C     1.447417     3.789865    -1.270947
 H     0.935044     4.342901    -2.061521
 C     3.096869     3.715572     0.512204
 C     4.163185     4.387310     1.328562
 H     3.767132     5.269924     1.855651
 H     4.582941     3.705045     2.080844
 H     4.991405     4.737072     0.691937
 C     2.426121     4.412488    -0.503213
 H     2.685081     5.457675    -0.696972
