  94
scf done:    -2750.513969
 C    -1.149655    -2.832907    -2.233516
 H    -1.739907    -3.617131    -1.749687
 H    -1.679981    -2.324001    -3.042908
 C     0.276843    -2.969095    -2.308501
 H     0.750899    -3.859592    -1.883689
 H     0.806428    -2.562960    -3.174900
 H    -0.158746    -0.467436    -2.159861
Ir    -0.228243    -1.449520    -0.860586
 O    -2.146047     1.254123    -1.150594
 O    -3.392793    -0.846434    -0.326768
 O    -2.033528     0.657041     1.229023
 O     2.348621    -0.943051     1.119716
 O     2.799498    -0.036174    -1.240491
 O     1.275818     1.262438     0.309114
 P     1.585079    -0.305468    -0.153091
 P    -1.930414    -0.073316    -0.263206
 C    -0.191672    -2.740633     0.587672
 O    -0.110598    -3.536563     1.404979
 C    -2.753648     2.504422    -0.744911
 H    -3.402940     2.307743     0.121093
 C    -3.588450     2.992927    -1.907007
 H    -4.398023     2.287109    -2.134673
 H    -2.960074     3.118048    -2.801889
 H    -4.039656     3.965387    -1.660222
 C    -1.661950     3.475804    -0.349359
 H    -1.014997     3.038668     0.420491
 H    -1.039708     3.742198    -1.215871
 H    -2.106674     4.399018     0.051714
 C    -4.619959    -0.228655    -0.345350
 C    -5.192978     0.246799     0.832209
 H    -4.646614     0.144447     1.771375
 C    -5.283262    -0.144020    -1.578756
 C    -4.623635    -0.668447    -2.816434
 H    -3.679816    -0.134731    -3.011598
 H    -4.362260    -1.731643    -2.702898
 H    -5.277141    -0.556320    -3.691975
 C    -6.453784     0.839103     0.789954
 H    -6.906293     1.215069     1.710373
 C    -6.550369     0.446547    -1.589184
 H    -7.087664     0.521228    -2.538601
 C    -7.132740     0.940634    -0.422439
 H    -8.122947     1.400107    -0.460825
 C    -1.819693     0.027792     2.423711
 C    -2.227924    -1.286505     2.650624
 H    -2.729451    -1.840630     1.855673
 C    -1.200889     0.786224     3.430991
 C    -0.781655     2.196877     3.156702
 H    -0.091258     2.238750     2.300391
 H    -1.645859     2.826869     2.893925
 H    -0.286011     2.638599     4.031839
 C    -1.990625    -1.877515     3.890556
 H    -2.295256    -2.912720     4.058253
 C    -0.991768     0.171917     4.667106
 H    -0.508096     0.747259     5.461387
 C    -1.371665    -1.149719     4.901866
 H    -1.186286    -1.606570     5.876359
 C     3.212286    -0.286078     2.069043
 H     3.610979     0.630873     1.606173
 C     4.358847    -1.225182     2.368784
 H     4.947058    -1.428296     1.464165
 H     3.974192    -2.177262     2.764749
 H     5.024304    -0.777773     3.121762
 C     2.389997     0.062285     3.290699
 H     1.552451     0.718015     3.022400
 H     1.968089    -0.849262     3.739621
 H     3.011541     0.570528     4.043477
 C     4.151722    -0.215265    -1.069662
 C     4.959895     0.898301    -0.849171
 H     4.496478     1.884260    -0.782911
 C     4.689494    -1.506189    -1.186742
 C     3.796652    -2.683102    -1.421954
 H     4.380851    -3.580042    -1.667162
 H     3.189951    -2.899166    -0.527831
 H     3.085128    -2.484156    -2.235998
 C     6.337156     0.735338    -0.720052
 H     6.970199     1.607947    -0.544012
 C     6.076599    -1.637421    -1.060547
 H     6.517425    -2.633924    -1.150592
 C     6.897441    -0.536260    -0.823441
 H     7.976920    -0.672219    -0.726825
 C     1.953892     2.417669     0.008700
 C     2.614657     3.076924     1.045745
 H     2.590764     2.641018     2.045428
 C     1.908511     2.956712    -1.288353
 C     1.157375     2.287090    -2.396412
 H     1.744281     1.460160    -2.823838
 H     0.212525     1.852054    -2.041262
 H     0.935320     3.002750    -3.200200
 C     3.288119     4.270251     0.801596
 H     3.807169     4.778174     1.617476
 C     2.599402     4.155566    -1.503314
 H     2.582833     4.589411    -2.506809
 C     3.290620     4.806733    -0.484052
 H     3.817719     5.740399    -0.692123
