  86
scf done:    -1923.362969
 C    -1.200741    -0.089034    -3.087055
 H    -1.353617    -1.079742    -3.529488
 H    -2.120167     0.503566    -3.044704
 C     0.052908     0.581818    -3.315799
 H     0.818799     0.082979    -3.919189
 H     0.044550     1.668079    -3.440578
 H    -0.754697     1.413042    -1.070724
Ir    -0.067293    -0.061779    -1.258011
 C    -2.672188     0.535818     1.078176
 C    -2.830750    -2.056651    -0.190604
 C    -0.905621    -1.582469     1.906749
 C     2.666905    -0.186200     1.117597
 C     2.840413     2.041573    -0.699925
 C     0.891063     2.038516     1.422697
 P     1.579115     0.942126     0.095620
 P    -1.587144    -0.804650     0.370327
 C     0.718676    -1.749556    -1.668852
 O     1.151713    -2.766157    -1.999820
 H    -1.936392     1.247369     1.495087
 C    -3.618058     0.115933     2.205638
 H    -3.069257    -0.380677     3.019891
 H    -4.345279    -0.620497     1.819635
 C    -4.373404     1.319234     2.767579
 H    -5.064917     0.991151     3.560781
 H    -3.649312     2.000813     3.250294
 C    -5.125673     2.077680     1.681285
 H    -5.623868     2.964093     2.106455
 H    -5.928396     1.432704     1.279660
 C    -4.192521     2.477924     0.545045
 H    -3.457706     3.215026     0.916412
 H    -4.755025     2.979651    -0.258824
 C    -3.446787     1.272433    -0.016778
 H    -4.177450     0.582053    -0.475622
 H    -2.755175     1.574268    -0.817129
 H    -3.295711    -2.508321     0.703326
 H    -3.623586    -1.487406    -0.704155
 C    -2.310091    -3.134714    -1.131557
 H    -1.477517    -3.684173    -0.663934
 H    -1.879060    -2.643666    -2.016667
 C    -3.395655    -4.112518    -1.552370
 H    -3.822611    -4.641955    -0.685034
 H    -4.223979    -3.592845    -2.060704
 H    -3.003588    -4.871596    -2.246113
 H    -0.360190    -0.777967     2.431970
 H    -1.736675    -1.880965     2.566865
 C     0.020032    -2.769785     1.677921
 H     0.775181    -2.506735     0.920195
 H    -0.553292    -3.606534     1.247394
 C     0.704114    -3.232485     2.955032
 H     1.326516    -2.431738     3.387155
 H    -0.030062    -3.526458     3.722042
 H     1.358889    -4.097539     2.769725
 H     1.931275    -0.775637     1.693720
 C     3.612030     0.493347     2.112779
 H     3.063294     1.169181     2.784968
 H     4.338123     1.117128     1.561746
 C     4.370148    -0.535364     2.950130
 H     5.055507    -0.021131     3.643588
 H     3.647390    -1.085313     3.580225
 C     5.132150    -1.527442     2.081145
 H     5.632205    -2.283646     2.707823
 H     5.933656    -0.992960     1.539417
 C     4.205352    -2.192510     1.072048
 H     3.474115    -2.824970     1.606740
 H     4.771685    -2.866955     0.409966
 C     3.453385    -1.160064     0.238243
 H     4.181758    -0.593842    -0.369735
 H     2.787949    -1.663689    -0.473378
 H     3.277073     2.685483     0.084002
 H     3.651082     1.379169    -1.047634
 C     2.344693     2.875805    -1.872008
 H     1.478323     3.484480    -1.565985
 H     1.960900     2.192533    -2.642635
 C     3.429696     3.772530    -2.446794
 H     3.802221     4.490508    -1.697825
 H     4.293557     3.181635    -2.792401
 H     3.058724     4.351170    -3.306504
 H     0.299774     1.374915     2.078474
 H     1.730019     2.410464     2.032334
 C     0.038369     3.217901     0.976316
 H    -0.732555     2.865867     0.272975
 H     0.661408     3.926767     0.406702
 C    -0.607642     3.941185     2.148165
 H    -1.272209     3.268280     2.714913
 H     0.146038     4.326741     2.853561
 H    -1.214212     4.794497     1.808267
