  94
scf done:    -2826.027189
 C    -0.721915    -0.086735    -3.428615
 H    -1.274851    -0.961358    -3.788782
 H    -1.239405     0.859209    -3.615363
 C     0.715066    -0.128597    -3.455286
 H     1.203460    -1.027542    -3.847050
 H     1.276303     0.785943    -3.669464
 H     0.038809     1.391188    -1.531357
Ir     0.013865    -0.244289    -1.417501
 C    -1.484246     1.437948     1.331516
 C    -3.227058     0.968605    -0.878993
 C    -2.570300    -1.166372     0.887837
 C     1.666782    -0.912210     1.628957
 C     3.414719    -0.902712    -0.601555
 C     2.492162     1.588535     0.430200
 P     1.884172    -0.086169     0.002343
 P    -1.795598     0.224570    -0.015114
 C    -0.092088    -2.153909    -1.364078
 O    -0.168271    -3.301071    -1.339798
 C    -1.983862     1.260697     2.626966
 C    -0.677646     2.549938     1.059273
 C    -0.836878     3.260040     3.361001
 C    -0.353936     3.454932     2.066470
 C    -1.658726     2.167235     3.635651
 H    -2.610450     0.395742     2.853846
 H    -2.044909     2.012296     4.646326
 H    -0.572273     3.960564     4.156917
 H     0.295712     4.303295     1.838148
 H    -0.277542     2.683699     0.052931
 C    -3.880286     2.126352    -0.434934
 H    -3.526598     2.642186     0.460326
 C    -3.708706     0.333508    -2.026851
 H    -3.202155    -0.563365    -2.390327
 C    -4.975950     2.631874    -1.121079
 H    -5.486098     3.537340    -0.787005
 C    -4.815278     0.821669    -2.716657
 H    -5.161513     0.296645    -3.607154
 C    -5.455113     1.984022    -2.266898
 O    -6.523245     2.544380    -2.867785
 C    -7.039610     1.945704    -4.022765
 H    -7.394703     0.917688    -3.830242
 H    -7.890994     2.560040    -4.342320
 H    -6.295731     1.915734    -4.838448
 C    -1.744213    -2.133454     1.482183
 H    -0.660791    -2.064958     1.370100
 C    -3.952480    -1.286323     1.047906
 H    -4.617895    -0.548272     0.594315
 C    -2.281662    -3.173633     2.220690
 H    -1.639384    -3.922445     2.687192
 C    -4.507672    -2.337045     1.779250
 H    -5.591711    -2.401831     1.875969
 C    -3.670889    -3.287660     2.374664
 O    -4.106502    -4.334847     3.101834
 C    -5.483796    -4.506375     3.280740
 H    -6.008842    -4.648609     2.319590
 H    -5.612456    -5.409059     3.891473
 H    -5.940085    -3.650547     3.809328
 C     1.980028    -2.272766     1.753672
 C     1.032697    -0.263671     2.697824
 C     1.033568    -2.314703     3.978418
 C     0.723104    -0.960470     3.863260
 C     1.662322    -2.968220     2.919082
 H     2.469246    -2.794398     0.927606
 H     1.909522    -4.029739     2.997752
 H     0.782262    -2.861253     4.890433
 H     0.221961    -0.437237     4.681030
 H     0.765853     0.790808     2.618515
 C     4.634043    -0.765949     0.083667
 H     4.692910    -0.136169     0.974175
 C     3.384142    -1.707134    -1.738412
 H     2.445098    -1.806128    -2.285051
 C     5.774028    -1.416184    -0.354476
 H     6.725888    -1.313602     0.170032
 C     4.524383    -2.372639    -2.191847
 H     4.457543    -2.992382    -3.086159
 C     5.729646    -2.229274    -1.498946
 O     6.886171    -2.821818    -1.850347
 C     6.906430    -3.641504    -2.985494
 H     6.638762    -3.083072    -3.899752
 H     7.933288    -4.015258    -3.085723
 H     6.221686    -4.501794    -2.882955
 C     2.402280     2.597879    -0.541243
 H     1.938650     2.365247    -1.503063
 C     3.081601     1.907224     1.655434
 H     3.175659     1.146917     2.433454
 C     2.863284     3.878849    -0.288236
 H     2.789516     4.667824    -1.039010
 C     3.542770     3.195219     1.928640
 H     3.982937     3.405208     2.903630
 C     3.430136     4.193751     0.955855
 O     3.830014     5.468602     1.123940
 C     4.404805     5.840758     2.344890
 H     5.329977     5.274929     2.553145
 H     4.651853     6.906919     2.264963
 H     3.705857     5.698688     3.188308
