  62
scf done:    -1609.116056
 C     0.049301    -2.842026    -1.522634
 H    -0.033973    -3.795220    -0.989344
 H    -0.646012    -2.758226    -2.364082
 C     1.344772    -2.217604    -1.628232
 H     2.209400    -2.712968    -1.173099
 H     1.592518    -1.680829    -2.549285
 H    -0.356708    -0.309783    -1.636739
Ir     0.101017    -1.101634    -0.266554
 C    -2.889559     0.860529     0.182296
 C    -3.276332    -1.946082    -0.451257
 C    -2.457377    -1.202929     2.169287
 C     2.966418     0.895296     0.353688
 C     0.667284     2.394408    -0.604562
 C     0.725525     1.462487     2.083867
 P     1.106959     0.907807     0.373062
 P    -2.114766    -0.817740     0.407228
 C     0.693885    -2.027652     1.291412
 O     1.054424    -2.558961     2.248732
 H    -2.178167     1.535521     0.696411
 C    -4.264805     1.054309     0.823343
 H    -4.233222     0.818650     1.898061
 H    -4.984684     0.351071     0.367364
 C    -4.770216     2.482946     0.629944
 H    -5.774112     2.589127     1.072412
 H    -4.111686     3.173289     1.188011
 C    -4.787655     2.886949    -0.839261
 H    -5.115972     3.933536    -0.945811
 H    -5.532760     2.271551    -1.375537
 C    -3.420610     2.684495    -1.481954
 H    -2.696275     3.384808    -1.026285
 H    -3.456257     2.933840    -2.554726
 C    -2.923278     1.255502    -1.295337
 H    -3.600242     0.568855    -1.834665
 H    -1.927015     1.117264    -1.741863
 H    -3.180192    -1.802394    -1.536154
 H    -2.968796    -2.977248    -0.226225
 H    -4.323486    -1.800188    -0.144765
 H    -3.531217    -1.220379     2.406551
 H    -2.024461    -2.188794     2.391076
 H    -1.952925    -0.464503     2.809988
 H     3.206673    -0.003536     0.953562
 C     3.661791     2.099861     0.988415
 H     3.332323     2.240920     2.029339
 H     3.382002     3.018049     0.440690
 C     5.181285     1.943116     0.953326
 H     5.660972     2.836591     1.385481
 H     5.466874     1.094138     1.600383
 C     5.694775     1.689832    -0.459136
 H     6.786817     1.541493    -0.448671
 H     5.509048     2.586515    -1.078401
 C     4.995741     0.492520    -1.092476
 H     5.269639    -0.425373    -0.541677
 H     5.341482     0.346479    -2.128619
 C     3.480071     0.654206    -1.066801
 H     3.202174     1.514341    -1.703160
 H     2.978376    -0.227927    -1.489862
 H     0.876594     2.202449    -1.665406
 H    -0.412009     2.574517    -0.504222
 H     1.213206     3.289887    -0.271545
 H     1.163354     2.440541     2.332109
 H    -0.366990     1.523387     2.192114
 H     1.093022     0.706063     2.793429
