  94
scf done:    -2826.014629
 C     0.925043    -3.252208     0.034989
 H     1.602749    -3.555245    -0.770030
 H     1.363820    -3.362217     1.031186
 C    -0.490702    -3.430044    -0.146502
 H    -0.842256    -3.888128    -1.078509
 H    -1.115474    -3.675084     0.715964
 H    -0.174275    -1.431339     1.375478
Ir     0.012057    -1.336921    -0.248583
 C     1.465520     1.294393     1.693212
 C     3.166363    -0.890226     0.910115
 C     2.511743     1.180011    -0.999676
 C    -1.649079     1.624993    -1.084349
 C    -3.405284    -0.638124    -1.033715
 C    -2.567226     0.491382     1.441007
 P    -1.904989     0.029407    -0.213001
 P     1.762018     0.121932     0.304319
 C     0.272897    -1.402804    -2.141456
 O     0.464374    -1.517768    -3.270693
 C     1.971340     2.601037     1.694546
 C     0.644629     0.889373     2.753975
 C     0.844930     3.063638     3.784445
 C     0.343939     1.763558     3.795862
 C     1.656785     3.479399     2.729476
 H     2.598821     2.943670     0.871718
 H     2.049588     4.499146     2.708915
 H     0.595716     3.756521     4.591950
 H    -0.311084     1.430107     4.603655
 H     0.213373    -0.113766     2.736411
 C     3.526574    -0.964764     2.252134
 H     3.011232    -0.332517     2.978038
 C     3.845497    -1.700390    -0.022805
 O     3.456089    -1.566301    -1.304179
 C     3.992964    -2.393778    -2.294007
 H     5.075193    -2.220222    -2.430341
 H     3.467569    -2.141810    -3.223725
 H     3.827058    -3.461378    -2.065628
 C     4.537511    -1.828542     2.680003
 H     4.802968    -1.874800     3.738350
 C     4.859259    -2.562837     0.398703
 H     5.385431    -3.190392    -0.321344
 C     5.200539    -2.622792     1.751361
 H     5.993582    -3.302342     2.072974
 C     1.769835     1.459969    -2.145638
 H     0.748086     1.084678    -2.210748
 C     3.832635     1.673783    -0.917867
 O     4.499658     1.424173     0.223342
 C     5.863899     1.711511     0.320601
 H     6.441674     1.213933    -0.477469
 H     6.191189     1.322192     1.293015
 H     6.061517     2.797574     0.281966
 C     2.301574     2.201837    -3.199518
 H     1.689922     2.408470    -4.079365
 C     4.379399     2.400391    -1.980119
 H     5.402566     2.773020    -1.923391
 C     3.610414     2.660998    -3.114551
 H     4.048977     3.233633    -3.935781
 C    -2.096597     1.796181    -2.399594
 C    -0.841937     2.619144    -0.514670
 C    -0.979419     3.938410    -2.533382
 C    -0.522161     3.771185    -1.227400
 C    -1.758770     2.941615    -3.118944
 H    -2.707284     1.022008    -2.870176
 H    -2.112152     3.055129    -4.147006
 H    -0.716791     4.835762    -3.098586
 H     0.112011     4.529758    -0.762397
 H    -0.431187     2.483782     0.486510
 C    -3.364287    -1.911449    -1.596270
 H    -2.421135    -2.458594    -1.530044
 C    -4.613870     0.090745    -1.081158
 O    -4.595397     1.318829    -0.536415
 C    -5.758007     2.094482    -0.519651
 H    -6.105208     2.334137    -1.540034
 H    -5.500353     3.027118    -0.002229
 H    -6.574986     1.595149     0.029716
 C    -4.487027    -2.473370    -2.204206
 H    -4.432807    -3.472928    -2.640048
 C    -5.743390    -0.469425    -1.686984
 H    -6.680822     0.085592    -1.730656
 C    -5.672116    -1.746967    -2.243681
 H    -6.562580    -2.171505    -2.714439
 C    -2.719538     1.801338     1.892038
 H    -2.497938     2.626345     1.215588
 C    -2.933735    -0.561476     2.308364
 O    -2.880356    -1.799686     1.793486
 C    -3.189330    -2.902448     2.594717
 H    -2.499380    -2.990158     3.451962
 H    -3.080503    -3.788968     1.957958
 H    -4.226943    -2.857243     2.969794
 C    -3.154918     2.082304     3.186676
 H    -3.252329     3.119202     3.514574
 C    -3.351525    -0.286068     3.615158
 H    -3.614301    -1.099226     4.291930
 C    -3.453787     1.034790     4.050306
 H    -3.785563     1.237222     5.071802
