  90
scf done:    -2846.469562
 C     0.830398    -4.069541     1.193414
 H     1.416699    -4.705889     0.522055
 H     1.288247    -3.948189     2.180198
 C    -0.607746    -4.091651     1.093392
 H    -1.073347    -4.745254     0.347494
 H    -1.201333    -3.988164     2.007077
 H    -0.004627    -1.754720     1.887641
Ir     0.139522    -2.224352     0.325663
 O     2.581617     0.002883     1.373009
 C     3.581615    -1.968915    -0.073087
 C     2.143446     0.211748    -1.338089
 O    -1.393592     0.257362    -1.292256
 C    -3.146852    -1.857428    -0.557623
 C    -2.242340     0.184794     1.370689
 P    -1.650820    -0.832240    -0.074396
 P     2.058390    -0.938990     0.131323
 C     0.205597    -2.831863    -1.493345
 O     0.201126    -3.168967    -2.592605
 C     1.770827     0.422049     2.469225
 H     0.711835     0.324484     2.171954
 C     2.093322     1.874613     2.748971
 H     1.907063     2.492555     1.860214
 H     3.153077     1.986302     3.023974
 H     1.478078     2.251365     3.580111
 C     2.029006    -0.490667     3.650665
 H     1.784043    -1.529955     3.388004
 H     3.087911    -0.438438     3.949094
 H     1.411972    -0.197724     4.513644
 H     3.611002    -2.598103     0.829820
 H     3.372621    -2.640499    -0.920418
 C     4.853598    -1.205791    -0.273539
 C     5.420261    -1.074429    -1.547817
 H     4.957991    -1.583729    -2.398020
 C     5.484321    -0.560209     0.799696
 H     5.052003    -0.641483     1.797655
 C     6.568482    -0.312917    -1.758768
 H     7.013814    -0.208865    -2.749649
 C     6.631915     0.201716     0.607975
 H     7.126661     0.708869     1.438267
 C     7.158889     0.320599    -0.673482
 F     8.257680     1.050473    -0.861447
 H     2.965322    -0.128769    -1.985403
 H     1.194555     0.067091    -1.872237
 C     2.323637     1.653444    -0.978418
 C     1.206747     2.477933    -0.806996
 H     0.210555     2.052184    -0.938138
 C     3.596653     2.202603    -0.779970
 H     4.480940     1.571962    -0.893027
 C     1.348670     3.823046    -0.470283
 H     0.481846     4.475476    -0.352938
 C     3.754521     3.541390    -0.435648
 H     4.743100     3.977877    -0.282109
 C     2.624928     4.338736    -0.289104
 F     2.770697     5.625331     0.032382
 C    -2.365810     0.803936    -2.193167
 H    -3.362882     0.719101    -1.734710
 C    -2.318048     0.022885    -3.493763
 H    -2.517343    -1.047099    -3.339927
 H    -1.319392     0.111445    -3.947709
 H    -3.057782     0.412016    -4.209849
 C    -2.064483     2.272211    -2.404976
 H    -2.089537     2.819214    -1.453867
 H    -1.073173     2.405009    -2.863780
 H    -2.815097     2.715818    -3.075934
 H    -2.945810    -2.189187    -1.587693
 H    -2.986336    -2.746182     0.071244
 C    -4.553222    -1.366351    -0.392197
 C    -5.190491    -1.469926     0.853133
 H    -4.667667    -1.945929     1.687024
 C    -5.285735    -0.817741    -1.453983
 H    -4.841181    -0.771438    -2.450240
 C    -6.483270    -0.993412     1.054851
 H    -6.976962    -1.069995     2.025109
 C    -6.579284    -0.336267    -1.273439
 H    -7.149804     0.092620    -2.099160
 C    -7.159601    -0.417168    -0.013036
 F    -8.393825     0.045638     0.167779
 H    -3.058143    -0.383711     1.840380
 H    -1.399838     0.162233     2.073817
 C    -2.653832     1.601374     1.105943
 C    -1.733512     2.640570     1.293501
 H    -0.717819     2.409699     1.623426
 C    -3.950342     1.933708     0.690863
 H    -4.693094     1.146469     0.551677
 C    -2.086945     3.970233     1.075772
 H    -1.378020     4.784265     1.237146
 C    -4.317449     3.256313     0.459417
 H    -5.327100     3.519125     0.138891
 C    -3.378360     4.261928     0.655311
 F    -3.725671     5.529905     0.443647
