 106
scf done:    -2459.283038
 C    -0.631712    -3.751499    -1.154869
 H    -1.453831    -4.283505    -0.662994
 H    -0.756008    -3.685459    -2.240478
 C     0.698645    -3.887502    -0.610372
 H     0.845811    -4.514649     0.275698
 H     1.545841    -3.917979    -1.302633
 H     0.612373    -1.584985    -1.707283
Ir    -0.044650    -1.904037    -0.232796
 C    -0.863401     1.127518    -1.802324
 C    -3.001941    -0.787330    -1.828819
 C    -2.370056     0.622749     0.619818
 C     1.036820     0.775437     1.769853
 C     3.020098    -1.272888     1.518296
 C     2.485527     0.486337    -0.717095
 P     1.635598    -0.489621     0.584320
 P    -1.575568    -0.230616    -0.802324
 C    -0.829117    -2.347702     1.446720
 O    -1.326167    -2.604768     2.455331
 C    -0.291290     0.814457    -3.048748
 H    -0.360595    -0.206524    -3.432051
 C    -0.721610     2.434200    -1.333016
 H    -1.145415     2.724590    -0.371281
 C     0.411896     1.758785    -3.776103
 H     0.869387     1.512181    -4.736042
 C     0.000434     3.394740    -2.047139
 H     0.102545     4.397754    -1.631810
 C     0.585761     3.056614    -3.269975
 O     1.334109     3.892287    -4.015559
 C     1.587020     5.182233    -3.533413
 H     2.119491     5.159354    -2.565863
 H     2.223984     5.677253    -4.277121
 H     0.657775     5.766697    -3.414312
 H    -2.564228    -1.210495    -2.748267
 H    -3.596087     0.092822    -2.122200
 C    -3.836510    -1.841741    -1.117012
 H    -3.150741    -2.603211    -0.709896
 H    -4.348213    -1.391192    -0.246409
 C    -4.882143    -2.530839    -1.995928
 H    -4.345277    -2.972490    -2.856763
 C    -5.548148    -3.666964    -1.228740
 H    -4.805671    -4.394405    -0.865755
 H    -6.273016    -4.207431    -1.857203
 H    -6.092344    -3.280344    -0.350611
 C    -5.920255    -1.554936    -2.538637
 H    -6.668303    -2.072973    -3.158812
 H    -5.465145    -0.768296    -3.159156
 H    -6.459136    -1.059869    -1.712594
 H    -1.549135     1.137802     1.144691
 H    -2.674538    -0.187288     1.300544
 C    -3.526150     1.575396     0.340565
 H    -3.336875     2.147766    -0.582913
 H    -4.448029     0.998087     0.147830
 C    -3.783869     2.566009     1.480303
 H    -2.853890     3.149717     1.623568
 C    -4.897081     3.536635     1.106928
 H    -4.668897     4.069976     0.170752
 H    -5.055084     4.290041     1.894263
 H    -5.850980     3.002617     0.961005
 C    -4.083984     1.862490     2.798921
 H    -4.279000     2.593829     3.598866
 H    -3.245668     1.227642     3.123357
 H    -4.977193     1.221158     2.709114
 C     0.957988     2.141973     1.461685
 H     1.378154     2.521337     0.529898
 C     0.477058     0.351764     2.980748
 H     0.501618    -0.706182     3.252949
 C     0.313393     3.035538     2.307254
 H     0.239121     4.096444     2.059659
 C    -0.163285     1.236744     3.845063
 H    -0.596981     0.855578     4.769730
 C    -0.266977     2.590488     3.501299
 O    -0.904219     3.518924     4.240872
 C    -1.476503     3.134133     5.460802
 H    -0.719669     2.740207     6.161588
 H    -1.926455     4.035992     5.894606
 H    -2.264782     2.374314     5.322305
 H     2.560639    -1.765466     2.391610
 H     3.680248    -0.478692     1.902271
 C     3.767839    -2.296164     0.677009
 H     3.024068    -2.957246     0.203752
 H     4.294760    -1.786733    -0.150970
 C     4.777920    -3.146427     1.449891
 H     4.227737    -3.641584     2.272560
 C     5.346761    -4.235355     0.547619
 H     4.547271    -4.863715     0.125534
 H     6.041270    -4.891440     1.095154
 H     5.902644    -3.793083    -0.296259
 C     5.893065    -2.309613     2.066854
 H     6.613312    -2.942337     2.608619
 H     5.507175    -1.564853     2.779230
 H     6.450650    -1.766680     1.284519
 H     1.694814     1.104167    -1.171702
 H     2.742185    -0.249988    -1.493001
 C     3.687409     1.332981    -0.313360
 H     3.549066     1.740385     0.702393
 H     4.590654     0.699432    -0.258048
 C     3.948686     2.501092    -1.269300
 H     3.031744     3.122997    -1.270187
 C     5.100653     3.362981    -0.768743
 H     4.915851     3.730532     0.252988
 H     5.261517     4.237149    -1.419172
 H     6.041316     2.787661    -0.749977
 C     4.183837     2.037616    -2.701959
 H     4.346326     2.894088    -3.374167
 H     3.325173     1.474255    -3.095217
 H     5.073786     1.388408    -2.762157
