 102
scf done:    -2682.503879
 C    -0.179899    -2.853211    -2.491616
 H     0.260081    -2.799938    -3.493281
 H     0.192035    -3.694424    -1.898821
 C    -1.541251    -2.427217    -2.304373
 H    -2.100351    -2.056506    -3.170563
 H    -2.171742    -2.961418    -1.586579
 H    -0.198773    -1.975116    -0.087542
Ir    -0.219150    -0.987568    -1.402827
 C     3.221722    -1.464435    -0.540637
 C     2.465636     1.262215    -1.242701
 C     1.553128     0.106207     1.365164
 C    -1.271191     2.153696    -0.095424
 C    -3.329092     0.481383    -1.233399
 C    -2.309904     0.000111     1.462963
 P    -1.747411     0.381682    -0.262318
 P     1.808103    -0.296989    -0.448113
 C    -0.072643     0.047345    -2.996723
 O     0.063645     0.654559    -3.966645
 C     4.416075    -1.303973     0.180235
 C     3.100687    -2.552991    -1.413235
 C     5.315901    -3.310674    -0.826799
 C     4.141048    -3.468082    -1.560090
 C     5.449356    -2.227609     0.040449
 H     4.555818    -0.457539     0.849526
 H     6.368351    -2.091030     0.615213
 H     6.130310    -4.031946    -0.932485
 H     4.028053    -4.311052    -2.246016
 H     2.166465    -2.668363    -1.966156
 H     2.502470     0.983276    -2.307361
 H     1.640636     1.983199    -1.142925
 C     3.783627     1.834887    -0.816817
 C     4.963989     1.262629    -1.308760
 H     4.892787     0.424917    -2.006010
 C     3.873083     2.950759     0.042134
 C     2.652030     3.694174     0.499766
 H     1.911029     3.050799     0.994968
 H     2.127693     4.159832    -0.349657
 H     2.917862     4.494999     1.203593
 C     6.216533     1.728366    -0.921527
 H     7.119126     1.253995    -1.313457
 C     5.140023     3.404382     0.425668
 H     5.208966     4.265876     1.095939
 C     6.305813     2.797302    -0.034505
 H     7.280788     3.172692     0.285264
 H     1.264228     1.167216     1.377068
 H     0.648134    -0.468924     1.599017
 C     2.619110    -0.183842     2.373347
 C     3.489675     0.823496     2.801737
 H     3.369912     1.833614     2.407596
 C     2.768557    -1.491618     2.882175
 C     1.845757    -2.596874     2.461955
 H     1.874493    -2.757663     1.372713
 H     0.796637    -2.373845     2.718391
 H     2.115854    -3.542977     2.949978
 C     4.525663     0.553563     3.691169
 H     5.203471     1.353798     3.997006
 C     3.809792    -1.743780     3.780795
 H     3.934662    -2.757973     4.169814
 C     4.690542    -0.740647     4.178824
 H     5.501259    -0.970362     4.874427
 C    -1.036809     2.882847    -1.272052
 C    -1.133730     2.813225     1.132540
 C    -0.623498     4.891790     0.005703
 C    -0.811626     4.170461     1.181015
 C    -0.729310     4.238718    -1.223773
 H    -1.105206     2.388295    -2.243905
 H    -0.569707     4.789069    -2.154053
 H    -0.383159     5.956619     0.044902
 H    -0.715554     4.666042     2.150101
 H    -1.291075     2.279639     2.070770
 H    -3.047505     1.024165    -2.151031
 H    -3.501848    -0.554927    -1.547545
 C    -4.551436     1.078501    -0.596457
 C    -4.558184     2.420698    -0.192259
 H    -3.663538     3.027615    -0.342602
 C    -5.722031     0.305641    -0.430102
 C    -5.799277    -1.123939    -0.882323
 H    -5.034225    -1.749745    -0.399068
 H    -5.655943    -1.210729    -1.971580
 H    -6.779703    -1.555099    -0.640104
 C    -5.684253     3.000047     0.387147
 H    -5.660480     4.048611     0.692901
 C    -6.843636     0.906081     0.153723
 H    -7.748943     0.307132     0.284677
 C    -6.834668     2.236169     0.565154
 H    -7.726826     2.674665     1.018567
 H    -1.391850    -0.122534     2.061660
 H    -2.813318     0.903846     1.826821
 C    -3.220011    -1.186388     1.647161
 C    -2.869628    -2.442483     1.139570
 H    -1.927117    -2.540568     0.597252
 C    -4.421002    -1.047324     2.376489
 C    -4.825350     0.256113     3.002731
 H    -4.905700     1.064219     2.260157
 H    -4.098785     0.578091     3.766837
 H    -5.803434     0.163928     3.493542
 C    -3.697013    -3.549835     1.310023
 H    -3.400723    -4.517432     0.898198
 C    -5.241064    -2.170675     2.533063
 H    -6.175552    -2.062974     3.090460
 C    -4.895547    -3.411633     2.004277
 H    -5.559223    -4.268607     2.142253
