 102
scf done:    -3055.047424
 C    -0.242652    -2.079535    -3.283872
 H    -0.633029    -3.100868    -3.239034
 H    -0.868083    -1.397626    -3.866449
 C     1.174472    -1.866617    -3.233105
 H     1.837836    -2.734459    -3.156772
 H     1.615946    -1.022856    -3.770410
 H     0.063981     0.184887    -2.128891
Ir     0.281471    -1.246919    -1.362356
 C    -2.066089     0.971195     0.140466
 O    -2.995472    -1.262819    -1.103590
 O    -1.772005    -1.524279     1.174041
 C     3.226298    -1.153024     0.621932
 O     2.953677     0.636958    -1.397831
 O     1.771936     0.980005     0.860409
 P     2.003452    -0.191486    -0.306392
 P    -1.652086    -0.736876    -0.289910
 C     0.410815    -2.980267    -0.526539
 O     0.431193    -4.014673    -0.034783
 C    -2.600367     1.851894    -0.813392
 H    -2.841164     1.496819    -1.817740
 C    -1.738864     1.465064     1.402927
 H    -1.268801     0.804685     2.134298
 C    -2.834616     3.177185    -0.492048
 H    -3.256994     3.871635    -1.220248
 C    -1.970103     2.796346     1.737231
 H    -1.686030     3.153986     2.725993
 C    -2.522829     3.660297     0.787797
 O    -2.772630     4.964862     1.010362
 C    -2.540616     5.483315     2.292186
 H    -1.478179     5.402491     2.577947
 H    -2.822100     6.543258     2.258104
 H    -3.156450     4.972250     3.052792
 C    -4.251453    -0.736368    -1.256682
 C    -5.018843    -0.240506    -0.204471
 H    -4.628161    -0.237500     0.812414
 C    -4.766306    -0.732448    -2.554005
 H    -4.145211    -1.124090    -3.362066
 C    -6.292860     0.259261    -0.464541
 H    -6.882328     0.650662     0.369149
 C    -6.042101    -0.234417    -2.793793
 H    -6.431768    -0.236192    -3.815776
 C    -6.832042     0.273207    -1.754356
 C    -8.218344     0.786884    -2.016197
 H    -8.944105    -0.041103    -2.082886
 H    -8.270983     1.340241    -2.965850
 H    -8.557849     1.456702    -1.213164
 C    -2.944113    -1.894630     1.779679
 C    -3.665030    -2.983878     1.286149
 H    -3.285942    -3.519307     0.414793
 C    -3.404535    -1.207328     2.900373
 H    -2.830074    -0.367575     3.291297
 C    -4.858622    -3.351506     1.894193
 H    -5.422197    -4.197012     1.490116
 C    -4.600772    -1.594338     3.503497
 H    -4.956040    -1.046308     4.380481
 C    -5.356003    -2.660869     3.007873
 C    -6.660558    -3.057240     3.635895
 H    -6.677069    -4.129743     3.885023
 H    -7.503108    -2.871921     2.949916
 H    -6.851346    -2.492984     4.559517
 C     3.918608    -0.640613     1.729906
 H     3.660529     0.347590     2.111808
 C     3.575002    -2.414517     0.136674
 H     3.055097    -2.817193    -0.736537
 C     4.924926    -1.375865     2.331210
 H     5.471748    -0.991717     3.194183
 C     4.590290    -3.161409     0.728743
 H     4.836205    -4.142895     0.323760
 C     5.272526    -2.641954     1.835677
 O     6.263861    -3.279905     2.481825
 C     6.656035    -4.549711     2.038475
 H     7.033762    -4.523145     1.001243
 H     7.465475    -4.878109     2.702433
 H     5.828348    -5.277982     2.096916
 C     4.227715     1.061539    -1.104849
 C     4.451415     2.321478    -0.556636
 H     3.606633     2.981846    -0.357692
 C     5.306683     0.221694    -1.385729
 H     5.114094    -0.758746    -1.823943
 C     5.755768     2.724818    -0.273327
 H     5.922006     3.715753     0.158323
 C     6.599971     0.637764    -1.095324
 H     7.437042    -0.031616    -1.313246
 C     6.850741     1.894104    -0.526750
 C     8.252496     2.322705    -0.201466
 H     8.282462     3.360494     0.159175
 H     8.909189     2.252868    -1.082982
 H     8.693412     1.683648     0.580869
 C     1.363130     2.266912     0.677875
 C     0.817019     2.745685    -0.515066
 H     0.672514     2.072526    -1.360256
 C     1.541315     3.136445     1.754111
 H     1.974902     2.747685     2.677484
 C     0.461706     4.085873    -0.613705
 H     0.029196     4.443832    -1.551878
 C     1.182994     4.477072     1.632417
 H     1.341509     5.148941     2.481333
 C     0.639085     4.982270     0.446962
 C     0.249541     6.424818     0.301181
 H    -0.819192     6.516834     0.050932
 H     0.818320     6.915259    -0.504913
 H     0.432786     6.988358     1.227437
