  98
scf done:    -2754.246664
 C     1.061938    -1.644988    -3.052770
 H     1.309637    -0.998549    -3.901720
 H     1.906619    -2.253376    -2.715235
 C    -0.269627    -2.174800    -2.956409
 H    -1.011971    -1.906967    -3.715730
 H    -0.402553    -3.184844    -2.561609
 H     0.576792    -1.972144    -0.600873
Ir     0.015645    -0.683608    -1.430321
 C     2.895024    -0.817838     0.462047
 C     2.933475     1.430528    -1.295035
 C     1.393859     1.636090     1.098923
 C    -2.176208     1.008011     0.758861
 C    -3.426640    -1.013286    -0.975398
 C    -2.026121    -1.777610     1.411430
 P    -1.885654    -0.627090    -0.026492
 P     1.761744     0.435969    -0.263002
 C    -0.677205     0.690333    -2.563464
 O    -1.115423     1.460368    -3.300064
 C     4.138669    -1.088321    -0.129453
 H     4.483345    -0.484215    -0.970808
 C     2.487504    -1.643784     1.514196
 H     1.507992    -1.503745     1.971540
 C     4.944872    -2.119657     0.329657
 H     5.910767    -2.328844    -0.133852
 C     3.291026    -2.674972     1.995291
 H     2.929730    -3.284202     2.824336
 C     4.534307    -2.921165     1.401693
 O     5.383026    -3.894245     1.785347
 C     5.012056    -4.734678     2.841048
 H     4.089901    -5.298351     2.613320
 H     5.835620    -5.446002     2.982375
 H     4.861211    -4.173491     3.780409
 C     2.712335     1.430919    -2.675642
 H     1.884321     0.835210    -3.060210
 C     4.009770     2.182910    -0.764129
 C     4.349441     2.260538     0.696735
 H     4.236026     1.293947     1.203655
 H     3.694336     2.973927     1.220961
 H     5.387413     2.597859     0.826427
 C     3.512346     2.164372    -3.546538
 H     3.310615     2.146023    -4.619844
 C     4.803186     2.911291    -1.660243
 H     5.638214     3.492882    -1.259769
 C     4.564183     2.914583    -3.031821
 H     5.206369     3.499293    -3.695159
 C     1.598780     1.300999     2.443158
 H     2.000667     0.322986     2.702881
 C     0.910712     2.927333     0.783126
 C     0.684421     3.403658    -0.620587
 H     0.278322     2.612393    -1.262435
 H     1.623716     3.741195    -1.085975
 H    -0.021230     4.245324    -0.629313
 C     1.351524     2.207636     3.469108
 H     1.529877     1.913537     4.506120
 C     0.677948     3.824627     1.831967
 H     0.307876     4.823836     1.587040
 C     0.893467     3.484452     3.162426
 H     0.691341     4.211466     3.952285
 C    -2.099472     1.178182     2.151175
 H    -1.902009     0.319070     2.794607
 C    -2.381405     2.149300    -0.022459
 H    -2.383975     2.079991    -1.111103
 C    -2.265584     2.423620     2.732499
 H    -2.189236     2.556065     3.812753
 C    -2.573463     3.405151     0.551074
 H    -2.739599     4.263175    -0.100547
 C    -2.513415     3.550038     1.939506
 O    -2.644061     4.723543     2.590262
 C    -2.880013     5.883087     1.843371
 H    -3.820158     5.818042     1.267683
 H    -2.959422     6.710254     2.560133
 H    -2.052610     6.097306     1.143130
 C    -4.342444    -0.012347    -1.320251
 H    -4.198937     1.003257    -0.952989
 C    -3.659934    -2.338170    -1.412822
 C    -2.785920    -3.496008    -1.030399
 H    -3.061983    -3.885646    -0.037288
 H    -1.727804    -3.208816    -0.983122
 H    -2.892361    -4.315009    -1.755533
 C    -5.460646    -0.284947    -2.102345
 H    -6.155087     0.519951    -2.354207
 C    -4.790611    -2.587984    -2.200087
 H    -4.968260    -3.611461    -2.542071
 C    -5.684728    -1.582033    -2.552293
 H    -6.554419    -1.813703    -3.171767
 C    -0.908313    -2.559995     1.711969
 H    -0.039735    -2.472753     1.056807
 C    -3.201420    -1.918813     2.188750
 C    -4.484787    -1.187992     1.918892
 H    -5.028679    -1.650984     1.080471
 H    -4.323465    -0.137137     1.648014
 H    -5.135809    -1.220244     2.803643
 C    -0.903571    -3.457152     2.775402
 H    -0.013373    -4.057307     2.978965
 C    -3.172381    -2.824323     3.258164
 H    -4.072543    -2.934458     3.869115
 C    -2.045595    -3.584580     3.559313
 H    -2.067932    -4.280778     4.401395
