  98
scf done:    -2754.266996
 C    -0.974630     0.039006    -3.790403
 H    -1.462655    -0.857737    -4.187074
 H    -1.597116     0.935146    -3.872212
 C     0.455029     0.153856    -3.916362
 H     1.003442    -0.659910    -4.403980
 H     0.896052     1.139405    -4.094984
 H    -0.198009     1.440767    -1.852715
Ir    -0.080109    -0.189078    -1.855543
 C    -1.679846     1.632161     0.648002
 C    -3.507314     0.202087    -1.046981
 C    -2.140637    -1.198161     0.977935
 C     1.671933    -1.197431     1.037343
 C     3.401974    -0.409642    -1.080020
 C     2.083789     1.598280     0.435247
 P     1.748048    -0.022325    -0.369269
 P    -1.829731     0.077896    -0.308116
 C     0.108807    -2.079885    -2.061493
 O     0.263325    -3.204792    -2.254928
 C    -1.828489     2.858583    -0.023251
 H    -2.143517     2.866576    -1.069865
 C    -1.266740     1.662248     1.978797
 H    -1.162275     0.729576     2.534069
 C    -1.559705     4.058293     0.611725
 H    -1.667712     5.012012     0.091585
 C    -0.967704     2.862808     2.624771
 H    -0.621767     2.836465     3.657909
 C    -1.096866     4.070114     1.936432
 O    -0.791847     5.277089     2.454259
 C    -0.329594     5.337139     3.774980
 H     0.601330     4.758911     3.907766
 H    -0.126809     6.393833     3.990836
 H    -1.084993     4.965189     4.489605
 C    -3.822233    -0.656375    -2.106253
 H    -3.046236    -1.316198    -2.500929
 C    -4.503007     1.050927    -0.554441
 H    -4.283880     1.729642     0.273292
 C    -5.099453    -0.666475    -2.654233
 H    -5.324376    -1.348704    -3.479057
 C    -5.778127     1.044115    -1.116410
 H    -6.542075     1.719184    -0.720146
 C    -6.100405     0.188511    -2.174546
 C    -7.465001     0.200683    -2.798529
 H    -8.206039     0.676967    -2.140966
 H    -7.458215     0.759639    -3.749209
 H    -7.812055    -0.818524    -3.025715
 C    -3.032213    -0.979019     2.036309
 H    -3.570359    -0.030948     2.111311
 C    -1.510331    -2.439866     0.888666
 H    -0.820453    -2.634587     0.069143
 C    -3.230975    -1.954943     3.007833
 H    -3.912969    -1.754921     3.839107
 C    -1.735911    -3.423074     1.845595
 H    -1.224263    -4.384394     1.751587
 C    -2.574558    -3.190324     2.938877
 C    -2.720902    -4.219976     4.019211
 H    -2.879673    -5.224904     3.598886
 H    -1.800197    -4.260285     4.624764
 H    -3.560099    -3.992062     4.691286
 C     1.170063    -0.833331     2.295127
 H     0.931015     0.211112     2.496892
 C     1.978547    -2.544178     0.820352
 H     2.370549    -2.864246    -0.148524
 C     0.966653    -1.777307     3.289679
 H     0.558884    -1.496860     4.262533
 C     1.784683    -3.503865     1.812622
 H     2.030371    -4.544116     1.598012
 C     1.259226    -3.125118     3.052964
 O     0.989433    -3.983322     4.059934
 C     1.267663    -5.343065     3.877084
 H     2.341056    -5.521246     3.689247
 H     0.980806    -5.851766     4.806198
 H     0.686814    -5.773544     3.041958
 C     3.593248    -0.278788    -2.455834
 H     2.738579    -0.005626    -3.077436
 C     4.494609    -0.777283    -0.282479
 H     4.368955    -0.900982     0.795693
 C     4.847037    -0.502948    -3.022441
 H     4.974589    -0.393101    -4.102991
 C     5.740340    -1.005173    -0.853902
 H     6.579498    -1.294830    -0.214588
 C     5.941078    -0.871370    -2.235434
 C     7.286831    -1.139809    -2.842433
 H     7.517058    -2.218021    -2.831742
 H     7.333397    -0.800423    -3.886649
 H     8.087646    -0.633558    -2.281837
 C     2.905976     1.713611     1.564808
 H     3.333459     0.821813     2.027741
 C     1.567213     2.766503    -0.128032
 H     0.919823     2.685559    -1.003333
 C     3.177734     2.959690     2.120697
 H     3.812849     3.022864     3.009092
 C     1.852169     4.011125     0.424662
 H     1.420820     4.907760    -0.027976
 C     2.657394     4.133261     1.559967
 C     2.970664     5.483049     2.135987
 H     2.114799     6.165932     2.030949
 H     3.238184     5.419817     3.200953
 H     3.824001     5.945065     1.611810
