  98
scf done:    -2428.762971
 C     0.679236    -3.083949    -1.564631
 H     0.052621    -3.936255    -1.279150
 H     0.606324    -2.838523    -2.628883
 C     1.941259    -2.900744    -0.889788
 H     2.232954    -3.617920    -0.114854
 H     2.791366    -2.513290    -1.459459
 H     1.138580    -0.591675    -1.587393
Ir     0.554611    -1.375100    -0.270707
 C    -1.080576     1.465224    -1.478395
 C    -2.483991    -0.973609    -2.018953
 C    -2.530355     0.135807     0.659058
 C     0.525248     1.051620     2.273456
 C     3.045949    -0.215652     2.041370
 C     2.203244     1.789973     0.090903
 P     1.613851     0.295997     0.991604
 P    -1.398216    -0.188654    -0.753462
 C    -0.142968    -2.401206     1.178723
 O    -0.592906    -3.038973     2.027146
 C    -1.359217     2.664602    -0.813175
 H    -1.866944     2.656068     0.152119
 C    -0.413553     1.527444    -2.711732
 H    -0.155039     0.602945    -3.233361
 C    -0.966513     3.892661    -1.347989
 H    -1.165062     4.831852    -0.828289
 C    -0.030961     2.742625    -3.265234
 H     0.498428     2.796145    -4.218339
 C    -0.301876     3.913841    -2.565827
 F     0.108992     5.077257    -3.068909
 H    -3.307202    -0.287084    -2.278521
 H    -1.859062    -1.090071    -2.919413
 C    -3.002278    -2.332584    -1.572134
 H    -2.148819    -2.935283    -1.218426
 H    -3.672598    -2.211789    -0.702578
 C    -3.739540    -3.084398    -2.671008
 H    -3.065157    -3.210312    -3.537522
 H    -4.585894    -2.473812    -3.035774
 C    -4.251916    -4.448057    -2.229220
 H    -3.401303    -5.049279    -1.862631
 H    -4.920952    -4.318659    -1.359882
 C    -4.980186    -5.205243    -3.327710
 H    -5.337400    -6.185699    -2.978061
 H    -4.322876    -5.380918    -4.194524
 H    -5.855652    -4.641844    -3.689232
 H    -2.611016    -0.828701     1.187234
 H    -1.966465     0.782739     1.349744
 C    -3.912070     0.710386     0.381664
 H    -3.838788     1.594203    -0.274798
 H    -4.519080    -0.023529    -0.175261
 C    -4.634753     1.092557     1.667367
 H    -4.013776     1.810114     2.235096
 H    -4.716090     0.201592     2.316279
 C    -6.017971     1.686227     1.444181
 H    -5.928905     2.574431     0.793528
 H    -6.635687     0.965173     0.879886
 C    -6.723189     2.065815     2.736218
 H    -7.716739     2.499147     2.546167
 H    -6.139338     2.806147     3.306558
 H    -6.861835     1.187966     3.387565
 C     0.126890     2.394011     2.258959
 H     0.544198     3.088477     1.529942
 C    -0.032736     0.209804     3.249085
 H     0.247085    -0.845165     3.286186
 C    -0.832191     2.873338     3.151764
 H    -1.158507     3.915011     3.133407
 C    -0.978355     0.674510     4.155477
 H    -1.424243     0.016740     4.903558
 C    -1.382821     2.003223     4.081476
 F    -2.320748     2.447698     4.915507
 H     3.430197     0.674083     2.569891
 H     2.616019    -0.880057     2.810160
 C     4.147414    -0.951302     1.294123
 H     3.685423    -1.732107     0.668499
 H     4.653527    -0.263355     0.596287
 C     5.181879    -1.574627     2.220279
 H     4.675165    -2.272453     2.911961
 H     5.630246    -0.792486     2.860323
 C     6.285111    -2.315161     1.477188
 H     5.827819    -3.087342     0.833723
 H     6.789215    -1.614726     0.787753
 C     7.311539    -2.954904     2.397833
 H     8.094527    -3.481248     1.831141
 H     6.840523    -3.687712     3.072730
 H     7.808196    -2.200305     3.029100
 H     1.286130     2.316191    -0.218907
 H     2.723954     2.440955     0.814979
 C     3.048627     1.569321    -1.153980
 H     3.999947     1.071225    -0.905231
 H     2.509569     0.876340    -1.820216
 C     3.322118     2.880179    -1.879614
 H     3.977526     3.522343    -1.263265
 H     2.373196     3.435364    -1.978999
 C     3.928948     2.708722    -3.263997
 H     4.901975     2.192834    -3.183018
 H     3.283026     2.032962    -3.852694
 C     4.096251     4.027114    -4.002594
 H     4.515092     3.882857    -5.010064
 H     4.768812     4.708752    -3.457294
 H     3.128057     4.543295    -4.110884
