  62
scf done:    -1758.992143
 C     3.384317     0.926269     0.548884
 H     3.949314     1.333148    -0.296904
 H     3.343008     1.607973     1.404570
 C     3.436198    -0.494028     0.787810
 H     4.038876    -1.112858     0.114335
 H     3.429853    -0.863116     1.817981
 H     1.161986     0.347130     1.639940
Ir     1.485174     0.050595     0.053965
 C    -1.566704     1.558190     0.851233
 C     0.563349     3.416048     0.398381
 C    -0.715416     2.141754    -1.859991
 C    -1.503465    -1.761910    -0.727174
 C     0.679642    -3.429325    -0.235347
 C    -0.632808    -2.042719     1.990909
 P     0.032763    -1.774533     0.293080
 P    -0.063118     1.775947    -0.174984
 C     1.924806    -0.209617    -1.782391
 O     2.180515    -0.333956    -2.899870
 C    -2.795666     1.167958     0.308032
 C    -1.460202     1.689009     2.244335
 C    -3.780324     1.071934     2.514787
 C    -2.556314     1.452049     3.068105
 C    -3.893425     0.928480     1.134648
 H    -2.905216     1.021568    -0.768307
 H    -4.841358     0.617535     0.689143
 H    -4.641233     0.883837     3.160730
 H    -2.453073     1.559386     4.150667
 H    -0.500385     1.956039     2.692715
 H     0.934853     3.247451     1.420961
 C     1.682115     3.953397    -0.479539
 H     1.324996     4.211607    -1.488411
 H     2.481857     3.206126    -0.586265
 H    -0.279417     4.122993     0.469231
 H     2.118880     4.864099    -0.042501
 H    -1.241835     1.229557    -2.182466
 C    -1.585930     3.378003    -2.019884
 H    -1.024839     4.300911    -1.811476
 H    -2.453540     3.359016    -1.343739
 H     0.179877     2.197397    -2.500705
 H    -1.967281     3.453216    -3.050149
 C    -1.382094    -1.427125    -2.083429
 C    -2.774792    -2.066213    -0.228326
 C    -3.762997    -1.679940    -2.401828
 C    -3.895105    -2.021988    -1.058387
 C    -2.498136    -1.389352    -2.915150
 H    -0.399550    -1.178586    -2.491833
 H    -2.379646    -1.125617    -3.969005
 H    -4.641849    -1.642716    -3.049926
 H    -4.880630    -2.252504    -0.645956
 H    -2.911183    -2.321399     0.823049
 H     0.719957    -3.366252    -1.335494
 C     2.043428    -3.811972     0.312023
 H     2.023076    -3.978709     1.398373
 H     2.775136    -3.016396     0.113782
 H    -0.089984    -4.182911     0.005069
 H     2.400450    -4.740794    -0.158671
 H    -1.241920    -2.961928     1.984320
 C     0.408672    -2.098514     3.096706
 H     1.060402    -1.213795     3.057853
 H     1.047160    -2.990039     3.020787
 H    -1.316075    -1.193945     2.162902
 H    -0.082760    -2.125146     4.081202
