 106
scf done:    -2833.277189
 C    -0.633878    -3.328725    -1.551594
 H    -1.214501    -4.073549    -0.995153
 H    -1.068935    -3.085751    -2.526428
 C     0.800803    -3.331214    -1.405611
 H     1.253052    -4.078631    -0.744087
 H     1.430133    -3.087653    -2.267269
 H     0.131514    -0.955248    -1.925835
Ir    -0.010095    -1.601217    -0.432046
 C    -2.109341     1.144567    -1.422677
 C    -3.423476    -0.841288     0.225815
 C    -1.551022     0.927374     1.434695
 C     2.109746     0.583925     1.641454
 C     3.407512    -0.737128    -0.560948
 C     1.577258     1.402109    -1.095895
 P     1.766273    -0.099972    -0.059764
 P    -1.780463    -0.091332    -0.072648
 C    -0.228259    -2.518374     1.229522
 O    -0.401311    -3.131666     2.189893
 H    -1.180763     1.744337    -1.453704
 C    -3.305253     2.067832    -1.182582
 H    -3.247871     2.559895    -0.200277
 H    -4.225272     1.458847    -1.167044
 C    -3.414280     3.110476    -2.292180
 H    -4.274165     3.773926    -2.102895
 H    -2.512487     3.750717    -2.277055
 C    -3.537811     2.450016    -3.659886
 H    -3.573695     3.212003    -4.455727
 H    -4.496953     1.903073    -3.707212
 C    -2.389731     1.477918    -3.903711
 H    -1.446669     2.046753    -3.980331
 H    -2.521258     0.960198    -4.867848
 C    -2.256228     0.454563    -2.780279
 H    -3.151232    -0.194019    -2.757440
 H    -1.392975    -0.203777    -2.954723
 C    -4.416899    -0.214622     0.997025
 H    -4.203452     0.737050     1.489456
 C    -3.724663    -2.066181    -0.371729
 H    -2.946064    -2.571030    -0.947742
 C    -5.665004    -0.794290     1.157031
 H    -6.440241    -0.319560     1.761515
 C    -4.980010    -2.656308    -0.227925
 H    -5.175224    -3.615066    -0.708702
 C    -5.960194    -2.020232     0.541362
 O    -7.197916    -2.507602     0.751932
 C    -7.548209    -3.733178     0.172736
 H    -6.905797    -4.556113     0.532619
 H    -8.584914    -3.936803     0.469467
 H    -7.493094    -3.697522    -0.929673
 C    -1.551596     0.266489     2.677490
 H    -1.810002    -0.794175     2.726899
 C    -1.225533     2.283058     1.421538
 H    -1.217494     2.836203     0.482555
 C    -1.212806     0.927329     3.843898
 H    -1.205449     0.411410     4.805760
 C    -0.864904     2.962221     2.590108
 H    -0.600492     4.018459     2.530349
 C    -0.841675     2.280871     3.808725
 O    -0.466611     2.824268     4.983653
 C    -0.026080     4.152848     5.000152
 H    -0.818108     4.852984     4.680780
 H     0.250849     4.380531     6.037147
 H     0.858383     4.297650     4.354355
 H     1.221165     1.203146     1.860888
 C     3.370357     1.446038     1.733658
 H     3.365277     2.246484     0.978494
 H     4.246735     0.816354     1.504170
 C     3.532967     2.033784     3.132423
 H     4.442371     2.655365     3.176146
 H     2.681276     2.706158     3.346816
 C     3.582759     0.934203     4.185835
 H     3.666745     1.367518     5.195944
 H     4.493989     0.329116     4.028245
 C     2.355372     0.036708     4.093356
 H     1.462164     0.622117     4.371186
 H     2.424113    -0.789345     4.819653
 C     2.158361    -0.528051     2.689117
 H     2.987952    -1.217416     2.447744
 H     1.234810    -1.120217     2.653131
 C     4.397656     0.066221    -1.148750
 H     4.184362     1.113713    -1.374604
 C     3.714612    -2.072426    -0.291694
 H     2.941493    -2.713278     0.138285
 C     5.646292    -0.451817    -1.455397
 H     6.418832     0.163231    -1.920897
 C     4.970875    -2.603465    -0.580463
 H     5.169998    -3.651522    -0.356034
 C     5.946477    -1.791828    -1.170085
 O     7.184186    -2.208105    -1.501461
 C     7.539386    -3.538024    -1.246912
 H     6.896911    -4.247772    -1.797412
 H     8.575040    -3.658548    -1.589281
 H     7.489632    -3.778120    -0.170048
 C     1.570070     1.247258    -2.494849
 H     1.793013     0.268503    -2.925984
 C     1.289832     2.666156    -0.583398
 H     1.294707     2.836738     0.492944
 C     1.256297     2.300329    -3.334012
 H     1.242749     2.177108    -4.418495
 C     0.949766     3.736962    -1.417041
 H     0.711064     4.702574    -0.970304
 C     0.914504     3.553460    -2.800723
 O     0.558281     4.500706    -3.690257
 C     0.156585     5.754205    -3.213838
 H     0.967067     6.264411    -2.663963
 H    -0.108459     6.355529    -4.092521
 H    -0.726529     5.676824    -2.554774
