 102
scf done:    -2381.276243
 C    -0.574301    -3.261747    -0.692318
 H    -1.009087    -3.834845     0.133390
 H    -1.180917    -3.287769    -1.601956
 C     0.854309    -3.178611    -0.801813
 H     1.474881    -3.682750    -0.054195
 H     1.318368    -3.126701    -1.790321
 H    -0.023725    -0.988379    -1.788281
Ir     0.093269    -1.260558    -0.172339
 C    -2.604526     0.592736    -1.622818
 O    -3.068019    -0.418350     0.760119
 O    -1.556441     1.632201     0.530001
 C     2.878800     0.431837     1.190559
 O     2.968882    -0.443091    -1.455952
 O     1.711115     1.694628    -0.805974
 P     1.906762     0.124478    -0.341619
 P    -1.750628     0.110749    -0.077812
 C     0.250743    -1.631394     1.698571
 O     0.354842    -1.840733     2.825903
 H    -1.826721     1.115332    -2.208508
 C    -3.773411     1.552066    -1.389679
 H    -3.422522     2.449097    -0.859587
 H    -4.505108     1.059332    -0.727614
 C    -4.442479     1.927281    -2.707925
 H    -5.299859     2.592921    -2.516122
 H    -3.731411     2.507822    -3.324131
 C    -4.887384     0.693273    -3.484336
 H    -5.341899     0.984012    -4.445467
 H    -5.675764     0.171687    -2.911556
 C    -3.722411    -0.262938    -3.712442
 H    -2.980446     0.219187    -4.374925
 H    -4.063046    -1.169663    -4.238084
 C    -3.044421    -0.647446    -2.402014
 H    -3.746057    -1.227125    -1.777636
 H    -2.176980    -1.298759    -2.587582
 C    -3.024889    -1.460921     1.717732
 H    -2.410592    -2.290163     1.326704
 H    -2.549776    -1.100426     2.646463
 C    -4.436981    -1.924386     1.997882
 H    -4.386994    -2.693258     2.788889
 H    -5.014116    -1.082628     2.419403
 C    -5.154704    -2.479462     0.775895
 H    -4.553987    -3.300948     0.346379
 H    -5.188456    -1.695330     0.002220
 C    -6.561588    -2.967932     1.077760
 H    -6.555407    -3.775838     1.827391
 H    -7.188586    -2.154783     1.477977
 H    -7.058396    -3.356188     0.175717
 C    -0.727570     1.921764     1.641588
 H    -0.344790     0.986240     2.086093
 H     0.145927     2.486642     1.275852
 C    -1.504166     2.719479     2.666792
 H    -0.799584     3.052647     3.449347
 H    -1.883921     3.635668     2.181183
 C    -2.658289     1.948219     3.290314
 H    -2.253326     1.066350     3.819248
 H    -3.292787     1.550576     2.481438
 C    -3.492634     2.781205     4.248599
 H    -2.884489     3.171343     5.080922
 H    -3.940564     3.647507     3.735533
 H    -4.314691     2.193762     4.684923
 H     2.079518     0.626543     1.931009
 C     3.819110     1.636417     1.197575
 H     3.273715     2.543731     0.900654
 H     4.617526     1.490424     0.450534
 C     4.454751     1.806082     2.574912
 H     5.150036     2.661245     2.566184
 H     3.664948     2.055865     3.306660
 C     5.173499     0.538534     3.024919
 H     5.593706     0.673147     4.034747
 H     6.032623     0.354042     2.354038
 C     4.246630    -0.672066     2.990575
 H     3.448739    -0.548496     3.744744
 H     4.795942    -1.586120     3.267901
 C     3.606148    -0.846048     1.618385
 H     4.383081    -1.081656     0.871911
 H     2.916070    -1.703518     1.617260
 C     4.009578     0.305345    -2.066789
 H     3.821895     0.277841    -3.154464
 H     3.965088     1.360776    -1.752136
 C     5.368784    -0.293465    -1.767027
 H     6.124379     0.288945    -2.323915
 H     5.605057    -0.151199    -0.698104
 C     5.478142    -1.769942    -2.118796
 H     5.283296    -1.900222    -3.198049
 H     4.670755    -2.313771    -1.601953
 C     6.827337    -2.368924    -1.758647
 H     7.650964    -1.855139    -2.280707
 H     7.023358    -2.286622    -0.677034
 H     6.880310    -3.435684    -2.023379
 C     1.014988     2.013145    -2.003284
 H     1.758202     2.149797    -2.810088
 H     0.366330     1.168096    -2.291618
 C     0.199227     3.271276    -1.807382
 H    -0.325310     3.484108    -2.756057
 H    -0.582299     3.063216    -1.058581
 C     1.018274     4.481898    -1.383258
 H     1.765792     4.712862    -2.163335
 H     1.595973     4.218452    -0.481702
 C     0.160845     5.705841    -1.106709
 H    -0.413635     6.004499    -1.998554
 H    -0.565867     5.505385    -0.302675
 H     0.769367     6.569517    -0.798512
