  62
scf done:    -1957.380448
 C     3.563495    -1.227947    -0.863084
 H     4.130061    -1.707217    -0.057665
 H     3.391129    -1.886841    -1.720032
 C     3.745682     0.182812    -1.095327
 H     4.450272     0.729802    -0.459473
 H     3.709226     0.563518    -2.120689
 H     1.338607    -0.360878    -1.802893
Ir     1.804639    -0.169039    -0.229919
 C    -1.492651    -1.485731    -0.485354
 C     0.606862    -3.375029    -0.814047
 C    -0.064695    -2.431397     1.838803
 C    -1.094089     1.725216     0.546794
 C     1.298719     3.243828     0.552863
 C     0.169363     2.406542    -1.990798
 P     0.536291     1.788299    -0.294952
 P     0.205998    -1.830852     0.117052
 C     2.374815     0.121352     1.562189
 O     2.689544     0.346618     2.649062
 C    -2.641511    -1.607849     0.303441
 H    -2.568516    -1.911598     1.348408
 C    -1.639047    -1.073325    -1.818333
 H    -0.747349    -0.949423    -2.439014
 C    -3.903676    -1.327338    -0.216588
 H    -4.802152    -1.399350     0.398971
 C    -2.892878    -0.801821    -2.355127
 H    -3.016611    -0.483067    -3.391946
 C    -4.012665    -0.928426    -1.540419
 F    -5.215066    -0.639791    -2.037647
 H     1.630361    -3.646669    -0.509005
 C    -0.362120    -4.534094    -0.663733
 H    -1.386699    -4.240752    -0.940116
 H    -0.390159    -4.915691     0.368556
 H     0.693114    -3.052084    -1.863940
 H    -0.068985    -5.374243    -1.312195
 H    -0.894765    -3.156052     1.848863
 C     1.183418    -3.048002     2.451560
 H     2.037481    -2.357367     2.412204
 H     1.478205    -3.970108     1.927955
 H    -0.393174    -1.553850     2.419303
 H     1.008937    -3.308561     3.506232
 C    -1.105294     1.386627     1.908220
 H    -0.162102     1.196639     2.428387
 C    -2.319395     1.920318    -0.098904
 H    -2.354532     2.155473    -1.163196
 C    -2.298833     1.262524     2.611478
 H    -2.315824     0.999540     3.670829
 C    -3.523968     1.792961     0.589631
 H    -4.483686     1.924363     0.086773
 C    -3.497705     1.466113     1.937250
 F    -4.647519     1.320442     2.595275
 H     1.379986     2.959031     1.614342
 C     2.665069     3.611848    -0.000131
 H     2.609222     3.931051    -1.052505
 H     3.346924     2.750643     0.043715
 H     0.593640     4.089610     0.507586
 H     3.108886     4.438911     0.574486
 H    -0.537957     1.678192    -2.420354
 C    -0.323540     3.838255    -2.135689
 H     0.451118     4.562341    -1.843866
 H    -1.211448     4.043672    -1.519772
 H     1.108603     2.250755    -2.544051
 H    -0.588610     4.051075    -3.182939
