 102
scf done:    -2382.718081
 C    -0.726909    -0.457662    -3.447714
 H    -1.241895    -1.376078    -3.750270
 H    -1.268996     0.448966    -3.737384
 C     0.716874    -0.440106    -3.461845
 H     1.250218    -1.344595    -3.775482
 H     1.232920     0.480754    -3.751809
 H    -0.013542     1.191926    -1.668712
Ir     0.012411    -0.428018    -1.433175
 C    -1.466755     1.796278     0.808475
 C    -3.270562     0.603310    -1.087062
 C    -2.308628    -0.916774     1.364333
 C     1.430909    -0.754067     1.752649
 C     3.296325    -1.111069    -0.398239
 C     2.298776     1.656377     0.386562
 P     1.796007    -0.103393     0.070059
 P    -1.784857     0.190373    -0.037694
 C     0.099903    -2.328105    -1.340711
 O     0.217222    -3.476229    -1.354052
 C    -1.324676     1.930225     2.194178
 C    -1.299165     2.942266     0.014163
 C    -0.849956     4.291649     1.967853
 C    -1.005842     4.175866     0.585283
 C    -1.008801     3.163711     2.767327
 H    -1.442587     1.066366     2.847793
 H    -0.893027     3.238502     3.851618
 H    -0.607791     5.257708     2.416857
 H    -0.887794     5.052903    -0.055596
 H    -1.381641     2.860625    -1.071920
 H    -2.773953     1.156438    -1.906078
 C    -4.363116     1.510328    -0.519842
 H    -3.925865     2.411897    -0.064848
 H    -4.911458     0.990269     0.280680
 C    -5.346013     1.897405    -1.623061
 H    -6.142444     2.538255    -1.210660
 H    -4.817657     2.506491    -2.378963
 C    -5.947566     0.668879    -2.297842
 H    -6.623100     0.970631    -3.114830
 H    -6.571748     0.126104    -1.564432
 C    -4.865006    -0.269902    -2.819974
 H    -4.313519     0.223186    -3.640539
 H    -5.317431    -1.177303    -3.252075
 C    -3.876325    -0.649136    -1.722098
 H    -4.405512    -1.232953    -0.948250
 H    -3.074569    -1.290068    -2.120048
 H    -1.461620    -0.806772     2.068365
 C    -2.351373    -2.398585     0.985819
 H    -1.407638    -2.690981     0.509704
 H    -3.144019    -2.572990     0.239189
 C    -2.603178    -3.271658     2.211692
 H    -2.664736    -4.329364     1.908111
 H    -1.733156    -3.188967     2.885389
 C    -3.858546    -2.858173     2.969699
 H    -3.980836    -3.473116     3.876235
 H    -4.747154    -3.051134     2.341261
 C    -3.817749    -1.377645     3.327627
 H    -2.994849    -1.194678     4.042882
 H    -4.747808    -1.075131     3.836070
 C    -3.600523    -0.521214     2.083909
 H    -4.449743    -0.678254     1.398067
 H    -3.605091     0.547980     2.343317
 C     1.269209    -2.141748     1.902087
 C     1.223282     0.057868     2.873647
 C     0.711560    -1.873398     4.238394
 C     0.858753    -0.496149     4.102217
 C     0.925172    -2.695785     3.130401
 H     1.405764    -2.803721     1.043776
 H     0.814714    -3.778987     3.220882
 H     0.432671    -2.306967     5.201539
 H     0.695643     0.160735     4.960539
 H     1.328256     1.139928     2.797891
 H     2.823370    -2.079434    -0.649187
 C     4.359294    -1.388014     0.665949
 H     3.898003    -1.757358     1.594142
 H     4.882764    -0.454942     0.926347
 C     5.376881    -2.399365     0.142178
 H     6.150503    -2.584740     0.905152
 H     4.869088    -3.366478    -0.026226
 C     6.015679    -1.932304    -1.161589
 H     6.715768    -2.694087    -1.541538
 H     6.619853    -1.028327    -0.961947
 C     4.962084    -1.603294    -2.213779
 H     4.435676    -2.528786    -2.509120
 H     5.438673    -1.212812    -3.127617
 C     3.939875    -0.600526    -1.688244
 H     4.449445     0.357636    -1.485231
 H     3.162254    -0.398692    -2.440030
 H     1.408259     2.042951     0.919475
 C     2.429040     2.499655    -0.885166
 H     1.545749     2.346099    -1.521352
 H     3.299874     2.158834    -1.469750
 C     2.597797     3.975039    -0.536058
 H     2.715124     4.566829    -1.458573
 H     1.672005     4.329947    -0.050980
 C     3.776144     4.212286     0.401699
 H     3.838766     5.276702     0.681339
 H     4.716857     3.974827    -0.127916
 C     3.676563     3.338073     1.646354
 H     2.800339     3.648752     2.244685
 H     4.560690     3.478262     2.289576
 C     3.528476     1.865486     1.273874
 H     4.426184     1.550622     0.715714
 H     3.489605     1.238946     2.177330
