  54
scf done:    -2101.004459
 C    -1.253948    -3.549207    -0.242560
 H    -1.110595    -4.129355     0.674149
 H    -2.302625    -3.441353    -0.531506
 C    -0.240689    -3.582515    -1.256858
 H     0.656516    -4.189059    -1.098020
 H    -0.543970    -3.514736    -2.305517
 H    -1.291460    -1.249384    -1.428633
Ir    -0.224101    -1.653659    -0.252472
 C    -2.078485     1.309730     0.335258
 O    -3.058969    -1.046366     1.243037
 O    -1.179637     0.181781     2.493661
 C     2.347089     0.777014    -0.171325
 O     2.099173    -0.416528    -2.466397
 O     0.209989     1.177636    -1.797085
 P     1.104140    -0.062158    -1.204520
 P    -1.610449    -0.325618     0.979250
 C     1.101180    -2.249262     1.009719
 O     1.918174    -2.626768     1.721825
 C    -1.786358     2.498786     1.009762
 H    -1.312745     2.454760     1.991601
 C    -2.699018     1.367073    -0.918726
 H    -2.908932     0.442044    -1.460816
 C    -2.096830     3.731098     0.438964
 H    -1.871144     4.671289     0.945392
 C    -3.028129     2.589182    -1.491599
 H    -3.512031     2.654195    -2.467689
 C    -2.713368     3.757699    -0.805242
 F    -3.009049     4.932036    -1.358374
 C    -4.098312    -0.374524     1.925491
 H    -3.759695     0.001740     2.904243
 H    -4.482260     0.474495     1.336161
 H    -4.907559    -1.101133     2.078441
 C    -0.567829    -0.724373     3.387315
 H    -0.989135    -1.738359     3.295639
 H     0.518763    -0.775710     3.215290
 H    -0.750224    -0.355128     4.406137
 C     3.672812     0.963743    -0.577399
 H     3.988814     0.584904    -1.550636
 C     1.940585     1.252176     1.082514
 H     0.911857     1.095713     1.416728
 C     4.580287     1.617890     0.251391
 H     5.620656     1.768446    -0.042695
 C     2.835582     1.915592     1.914966
 H     2.537100     2.293630     2.894328
 C     4.147297     2.087608     1.485706
 F     5.010576     2.714115     2.280208
 C     1.641289    -1.275172    -3.490407
 H     1.179923    -2.179417    -3.063577
 H     0.901928    -0.768229    -4.132450
 H     2.512673    -1.554437    -4.097939
 C     0.799767     2.344496    -2.323445
 H     1.344797     2.905090    -1.545723
 H     1.495740     2.110820    -3.145707
 H    -0.017093     2.971960    -2.705814
