  94
scf done:    -2826.161124
 C    -0.687390    -3.417445    -0.456202
 H    -1.530400    -3.780934     0.139819
 H    -0.847635    -3.506364    -1.533840
 C     0.644311    -3.498985     0.062941
 H     0.807097    -3.928036     1.056258
 H     1.485386    -3.648238    -0.618999
 H     0.555644    -1.386368    -1.429177
Ir    -0.018584    -1.434219     0.103258
 C    -1.124557     1.284070    -1.936348
 O    -2.916134    -0.509414    -1.358729
 O    -2.106469     1.030669     0.592914
 C     1.591588     1.116376     1.959893
 O     3.183898    -0.731516     1.030687
 O     2.107286     0.904515    -0.693149
 P     1.724464    -0.064612     0.588277
 P    -1.534230     0.081642    -0.636540
 C    -0.728298    -1.589694     1.893434
 O    -1.173607    -1.686028     2.944823
 C    -1.031160     2.655310    -1.680668
 C    -0.829810     0.796811    -3.214672
 C    -0.390481     3.046058    -3.976910
 C    -0.466363     1.675655    -4.230595
 C    -0.669439     3.532769    -2.701451
 H    -1.254626     3.049455    -0.688196
 H    -0.603012     4.603166    -2.494338
 H    -0.106522     3.735253    -4.775813
 H    -0.239602     1.289312    -5.226946
 H    -0.881222    -0.277077    -3.409757
 C    -3.557605    -1.620195    -0.872199
 C    -3.827446    -1.761210     0.486169
 H    -3.536456    -0.968665     1.178484
 C    -3.935914    -2.605464    -1.782569
 H    -3.707930    -2.467145    -2.840639
 C    -4.453932    -2.916141     0.968672
 C    -4.712673    -3.062813     2.439830
 H    -3.796080    -2.876644     3.020536
 H    -5.465587    -2.334848     2.782815
 H    -5.079796    -4.068561     2.686829
 C    -4.575439    -3.745840    -1.309459
 H    -4.871524    -4.528883    -2.011611
 C    -4.823207    -3.907368     0.054347
 H    -5.311306    -4.816427     0.414597
 C    -3.111073     1.962423     0.634800
 C    -4.070361     2.116125    -0.363456
 H    -4.048566     1.470181    -1.241453
 C    -3.126124     2.772848     1.773238
 H    -2.361036     2.618951     2.536393
 C    -5.061223     3.098853    -0.238458
 C    -6.086618     3.256738    -1.323535
 H    -5.608761     3.488201    -2.288627
 H    -6.660549     2.327148    -1.463567
 H    -6.796957     4.062940    -1.093932
 C    -4.110969     3.745284     1.895960
 H    -4.130848     4.383050     2.783075
 C    -5.071899     3.911692     0.897884
 H    -5.841520     4.680219     1.003902
 C     2.076360     0.816370     3.236059
 C     0.877176     2.300787     1.747052
 C     1.142086     2.881332     4.074840
 C     0.659010     3.182501     2.800907
 C     1.849282     1.699359     4.290205
 H     2.637980    -0.105893     3.397019
 H     2.229912     1.462868     5.286645
 H     0.967549     3.572281     4.903087
 H     0.109547     4.110437     2.625556
 H     0.500136     2.535582     0.749642
 C     3.676090    -1.854783     0.414491
 C     3.745326    -1.940313    -0.973094
 H     3.393361    -1.102725    -1.578759
 C     4.114022    -2.903559     1.220802
 H     4.041743    -2.809058     2.305492
 C     4.239336    -3.097897    -1.584881
 C     4.273395    -3.194318    -3.082369
 H     3.253043    -3.180105    -3.498293
 H     4.813922    -2.343267    -3.524851
 H     4.761454    -4.120221    -3.416762
 C     4.619315    -4.049185     0.615837
 H     4.963779    -4.880235     1.235891
 C     4.676217    -4.150335    -0.774323
 H     5.065423    -5.060315    -1.237849
 C     2.991375     1.951832    -0.745144
 C     4.048635     2.111281     0.147222
 H     4.211116     1.375007     0.934672
 C     2.781874     2.868449    -1.777342
 H     1.946405     2.708742    -2.459799
 C     4.906492     3.212801     0.030672
 C     6.033646     3.379934     1.008307
 H     5.653862     3.451951     2.039838
 H     6.718102     2.517444     0.976475
 H     6.619582     4.285426     0.798091
 C     3.637577     3.956334    -1.896383
 H     3.479592     4.679587    -2.700303
 C     4.690303     4.133634    -0.997465
 H     5.354376     4.995929    -1.097093
