 122
scf done:    -3291.003415
 C    -0.027063    -2.579895    -1.842639
 H     0.773604    -3.273575    -1.592322
 H    -1.026231    -3.021320    -1.878784
 C     0.251368    -1.409634    -2.578201
 H     1.275124    -1.187711    -2.889987
 H    -0.520120    -0.964036    -3.212032
 H    -0.014695     0.605926    -1.078166
Ir    -0.011866    -0.897433    -0.416176
 C    -3.000603     0.154704    -2.002375
 C    -3.557587    -1.045752     0.542403
 C    -2.084623     1.463779     0.551300
 C     2.848746    -0.898394     1.672569
 C     3.686205    -0.386708    -1.000164
 C     1.993894     1.622986     0.293454
 P     2.174133    -0.206528     0.083851
 P    -2.201402    -0.142212    -0.350901
 C    -0.180712    -1.722243     1.269154
 O    -0.303941    -2.188226     2.329867
 H    -2.204813     0.662876    -2.569677
 C    -4.260450     1.017109    -2.028577
 H    -4.094141     1.973139    -1.515995
 H    -5.061002     0.502002    -1.473246
 C    -4.715797     1.247627    -3.466694
 H    -5.624052     1.873071    -3.481087
 H    -3.936841     1.817836    -4.006097
 C    -4.968694    -0.071001    -4.189157
 H    -5.250484     0.108526    -5.240005
 H    -5.831265    -0.575598    -3.717135
 C    -3.754406    -0.989222    -4.109977
 H    -2.924961    -0.550693    -4.694442
 H    -3.977933    -1.963505    -4.574875
 C    -3.290189    -1.192943    -2.670848
 H    -4.075729    -1.717912    -2.099636
 H    -2.404505    -1.840719    -2.645251
 C    -4.623965    -0.372262     1.176059
 O    -4.721053     0.949900     0.946859
 C    -5.542710     1.750159     1.743859
 H    -5.325981     2.788790     1.462373
 H    -6.614222     1.545457     1.571230
 H    -5.320334     1.618979     2.816931
 C    -3.487451    -2.441883     0.711407
 O    -2.538819    -3.089738     0.018555
 C    -2.106852    -4.354497     0.438845
 H    -1.186106    -4.562779    -0.120700
 H    -2.851493    -5.139046     0.216603
 H    -1.873298    -4.357742     1.515934
 C    -4.381101    -3.122940     1.551602
 H    -4.298689    -4.201107     1.682890
 C    -5.525388    -1.044957     2.008022
 H    -6.335958    -0.506372     2.497551
 C    -5.384517    -2.415479     2.196769
 H    -6.085689    -2.944688     2.846771
 C    -1.895782     2.699112    -0.089178
 O    -1.777817     2.671679    -1.434952
 C    -1.687328     3.870726    -2.145026
 H    -1.635366     3.598889    -3.207903
 H    -2.573761     4.510371    -1.985728
 H    -0.780091     4.436991    -1.874534
 C    -2.043883     1.451945     1.959785
 O    -2.114856     0.238152     2.528278
 C    -1.979966     0.083582     3.908815
 H    -1.959635    -0.997275     4.091661
 H    -2.826400     0.534661     4.457060
 H    -1.036570     0.522216     4.274732
 C    -1.958200     2.635014     2.700311
 H    -1.976363     2.607193     3.789617
 C    -1.813757     3.891665     0.642584
 H    -1.682501     4.844862     0.133411
 C    -1.864045     3.850509     2.029111
 H    -1.803247     4.780873     2.598809
 H     2.028483    -0.727619     2.384511
 C     4.111631    -0.234719     2.214033
 H     3.987105     0.854681     2.273907
 H     4.944692    -0.416033     1.513100
 C     4.465918    -0.811858     3.582200
 H     5.386997    -0.342152     3.966117
 H     3.663565    -0.554270     4.297880
 C     4.624939    -2.327637     3.530746
 H     4.825240    -2.729645     4.537889
 H     5.510823    -2.572192     2.916444
 C     3.399578    -2.998727     2.919022
 H     2.528847    -2.866216     3.585850
 H     3.562369    -4.085898     2.832619
 C     3.062801    -2.409368     1.553532
 H     3.891239    -2.607315     0.852186
 H     2.170645    -2.891152     1.127801
 C     4.685958     0.605457    -1.101742
 O     4.606258     1.634348    -0.240745
 C     5.389028     2.776717    -0.419300
 H     5.035355     3.508529     0.318478
 H     6.460890     2.575510    -0.244455
 H     5.264623     3.202662    -1.430070
 C     3.863362    -1.547369    -1.778758
 O     3.004278    -2.560816    -1.562471
 C     3.200884    -3.777599    -2.224220
 H     2.457003    -4.476482    -1.822624
 H     4.209916    -4.183615    -2.036443
 H     3.042459    -3.683668    -3.312356
 C     4.904020    -1.652302    -2.714280
 H     5.007350    -2.542713    -3.331796
 C     5.725453     0.512013    -2.035343
 H     6.472812     1.300693    -2.112338
 C     5.812514    -0.611770    -2.846021
 H     6.620511    -0.690414    -3.577380
 C     1.723627     2.258654     1.514803
 O     1.599222     1.470149     2.605534
 C     1.516874     2.051333     3.872696
 H     1.498123     1.222655     4.593307
 H     2.392082     2.689933     4.087938
 H     0.597063     2.648544     3.990814
 C     1.984938     2.422320    -0.867365
 O     2.170600     1.758057    -2.023277
 C     2.005181     2.409483    -3.245372
 H     2.121010     1.643192    -4.022271
 H     2.766708     3.194302    -3.403880
 H     1.001453     2.859529    -3.331448
 C     1.817048     3.807162    -0.808018
 H     1.848427     4.409187    -1.715956
 C     1.569911     3.651191     1.588331
 H     1.369128     4.132855     2.543608
 C     1.629087     4.413689     0.431608
 H     1.503234     5.497287     0.492115
