 102
scf done:    -2532.622883
 C    -0.645010    -0.346044    -3.607116
 H    -1.204816    -1.218362    -3.963060
 H    -1.109577     0.605804    -3.883964
 C     0.792415    -0.431440    -3.544757
 H     1.271365    -1.366275    -3.856274
 H     1.395325     0.453351    -3.771009
 H     0.084949     1.196076    -1.751077
Ir    -0.005698    -0.422869    -1.553863
 C    -2.171441     1.749158     0.314069
 C    -3.404062    -0.725052    -0.535205
 C    -1.504676    -0.793837     1.589727
 C     2.166076    -1.054872     1.343658
 C     3.400118     0.236522    -0.906677
 C     1.533235     1.712256     0.699008
 P     1.767718     0.069860    -0.088931
 P    -1.776180    -0.029355    -0.056738
 C    -0.171343    -2.326209    -1.507695
 O    -0.316516    -3.468537    -1.551321
 H    -1.253105     2.116659     0.809622
 C    -3.373373     1.972012     1.233573
 H    -3.293976     1.380108     2.157388
 H    -4.282891     1.617338     0.719278
 C    -3.529135     3.453731     1.566302
 H    -4.395542     3.601288     2.231661
 H    -2.640052     3.793045     2.129498
 C    -3.678474     4.291414     0.301840
 H    -3.744605     5.362952     0.553198
 H    -4.631958     4.028157    -0.190798
 C    -2.528419     4.039224    -0.666128
 H    -1.589800     4.418849    -0.224763
 H    -2.682554     4.600241    -1.602285
 C    -2.352963     2.555596    -0.973267
 H    -3.241844     2.178238    -1.511198
 H    -1.490139     2.394815    -1.635522
 C    -3.724173    -0.807512    -1.893972
 H    -2.969607    -0.518668    -2.628773
 C    -4.362473    -1.126287     0.404473
 H    -4.133341    -1.077934     1.471633
 C    -4.974075    -1.266331    -2.301136
 H    -5.204438    -1.319129    -3.368961
 C    -5.605277    -1.594610    -0.010054
 H    -6.338557    -1.906472     0.739303
 C    -5.935255    -1.672469    -1.369090
 C    -7.264656    -2.210169    -1.810639
 H    -7.565053    -1.794606    -2.783289
 H    -7.226633    -3.306995    -1.921090
 H    -8.054846    -1.983840    -1.079905
 C    -1.213816    -0.067947     2.747506
 H    -1.241893     1.021374     2.736009
 C    -1.455554    -2.195376     1.662791
 H    -1.681996    -2.792929     0.776206
 C    -0.856622    -0.718792     3.929910
 H    -0.623914    -0.123735     4.817835
 C    -1.113188    -2.837848     2.844692
 H    -1.083262    -3.930804     2.869517
 C    -0.790478    -2.111545     4.001209
 C    -0.361004    -2.814580     5.254405
 H    -1.020341    -3.664708     5.486181
 H     0.659832    -3.218578     5.145795
 H    -0.358788    -2.136187     6.119027
 H     1.278612    -0.969277     1.997240
 C     3.419838    -0.669576     2.131542
 H     3.388271     0.383488     2.448962
 H     4.296811    -0.762305     1.468475
 C     3.605863    -1.583565     3.339433
 H     4.509579    -1.289697     3.898035
 H     2.753077    -1.451090     4.030820
 C     3.691716    -3.044399     2.914372
 H     3.787753    -3.700066     3.795543
 H     4.609658    -3.189843     2.316615
 C     2.480280    -3.445334     2.081758
 H     1.577615    -3.418613     2.716609
 H     2.580990    -4.483687     1.726406
 C     2.262597    -2.512612     0.894296
 H     3.101185    -2.617835     0.182318
 H     1.352214    -2.803938     0.355035
 C     3.732855    -0.677781    -1.912762
 H     2.984312    -1.406553    -2.232075
 C     4.353010     1.189020    -0.528138
 H     4.118786     1.912771     0.256051
 C     4.988028    -0.648121    -2.512112
 H     5.227452    -1.375925    -3.292610
 C     5.601640     1.223553    -1.143482
 H     6.330558     1.978705    -0.835491
 C     5.943642     0.306667    -2.144093
 C     7.278331     0.366162    -2.827184
 H     7.218792     0.961551    -3.753799
 H     8.039987     0.833292    -2.186379
 H     7.632298    -0.636574    -3.108286
 C     1.272741     1.887091     2.060016
 H     1.310222     1.038351     2.742360
 C     1.481453     2.844550    -0.129694
 H     1.679132     2.735348    -1.198634
 C     0.929823     3.141489     2.569112
 H     0.714710     3.243954     3.636697
 C     1.158311     4.092680     0.383813
 H     1.123496     4.955029    -0.287985
 C     0.854254     4.264089     1.742984
 C     0.434096     5.602949     2.272240
 H     1.087728     6.406730     1.900916
 H    -0.591999     5.845893     1.948048
 H     0.449507     5.627737     3.370863
