 110
scf done:    -2237.626345
 C    -1.583756     0.222632    -3.137890
 H    -2.408970    -0.466876    -3.347407
 H    -1.866752     1.274275    -3.250567
 C    -0.239795    -0.177179    -3.477004
 H    -0.080804    -1.159282    -3.935333
 H     0.461882     0.580759    -3.840701
 H    -0.009881     1.378158    -1.442954
Ir    -0.477463    -0.196529    -1.339139
 C    -1.628801     2.395995     0.778964
 C    -3.648876     0.463096     0.054372
 C    -1.674882    -0.181060     2.080705
 C     2.120537    -2.169453    -0.013831
 C     3.032468     0.239784    -1.382914
 C     1.826152     0.487542     1.236566
 P     1.635256    -0.408047    -0.371146
 P    -1.839512     0.585323     0.398387
 C    -0.952287    -2.037890    -1.265964
 O    -1.198096    -3.164977    -1.217101
 H    -0.535540     2.487691     0.920265
 C    -2.312692     2.904996     2.048854
 H    -2.021787     2.303638     2.923499
 H    -3.407826     2.801377     1.946488
 C    -1.968546     4.371571     2.303350
 H    -2.490617     4.729602     3.205713
 H    -0.887194     4.450254     2.519137
 C    -2.306201     5.251566     1.105708
 H    -2.006476     6.294362     1.299400
 H    -3.402484     5.264934     0.965285
 C    -1.648310     4.730755    -0.166894
 H    -0.550639     4.824670    -0.078415
 H    -1.942710     5.345690    -1.032746
 C    -2.002506     3.269489    -0.419611
 H    -3.088933     3.190792    -0.603006
 H    -1.497223     2.891376    -1.321222
 H    -3.798652     1.017988    -0.886592
 H    -4.201114     0.996780     0.845632
 C    -4.158408    -0.960468    -0.112874
 H    -3.456135    -1.513640    -0.756873
 H    -4.158538    -1.479169     0.862958
 C    -5.558277    -1.067624    -0.722115
 H    -5.523682    -0.561119    -1.705269
 C    -5.915987    -2.529764    -0.961375
 H    -5.164810    -3.028127    -1.593518
 H    -6.895340    -2.629941    -1.454547
 H    -5.966023    -3.081744    -0.007666
 C    -6.619193    -0.375897     0.126262
 H    -7.618594    -0.480158    -0.324038
 H    -6.420752     0.700385     0.241732
 H    -6.662022    -0.819344     1.135839
 H    -2.596179     0.010396     2.657261
 H    -0.868258     0.378741     2.581361
 C    -1.346102    -1.665435     2.059041
 H    -2.150496    -2.216451     1.546419
 H    -0.451044    -1.818051     1.433737
 C    -1.107596    -2.304087     3.429464
 H    -1.996856    -2.103588     4.056789
 C    -0.967639    -3.814969     3.279281
 H    -1.857378    -4.257352     2.805560
 H    -0.820489    -4.307304     4.253041
 H    -0.099729    -4.063176     2.644921
 C     0.109684    -1.723271     4.141810
 H     0.244378    -2.180133     5.134303
 H     0.032096    -0.635388     4.289967
 H     1.028387    -1.919255     3.562839
 H     1.196540    -2.575272     0.438064
 C     3.254126    -2.426630     0.976981
 H     3.065439    -1.904555     1.927559
 H     4.202703    -2.026240     0.575859
 C     3.404404    -3.923718     1.244433
 H     4.242601    -4.100804     1.938012
 H     2.494607    -4.281980     1.760214
 C     3.596643    -4.720133    -0.041043
 H     3.651345    -5.797989     0.182166
 H     4.568214    -4.447476    -0.492306
 C     2.485197    -4.435876    -1.045383
 H     1.522779    -4.812393    -0.655492
 H     2.670754    -4.975791    -1.987897
 C     2.356856    -2.941147    -1.314623
 H     3.288678    -2.579925    -1.785025
 H     1.545044    -2.738364    -2.030395
 H     3.063421    -0.378685    -2.293889
 H     3.972261     0.062057    -0.834769
 C     2.875827     1.703321    -1.770839
 H     1.943139     1.804636    -2.346989
 H     2.731028     2.327880    -0.870104
 C     4.042118     2.276590    -2.578857
 H     4.203795     1.608657    -3.446184
 C     3.681549     3.658180    -3.112803
 H     2.771576     3.624433    -3.731524
 H     4.493466     4.079470    -3.725871
 H     3.492961     4.360116    -2.282983
 C     5.338057     2.328475    -1.776371
 H     6.163617     2.739646    -2.377866
 H     5.651746     1.333855    -1.425098
 H     5.220699     2.974429    -0.889372
 H     1.329541    -0.151657     1.985662
 H     1.177449     1.368070     1.124228
 C     3.202151     0.917657     1.725316
 H     3.907420     0.073506     1.695804
 H     3.617673     1.678388     1.042031
 C     3.193257     1.490680     3.146647
 H     2.818952     0.695457     3.819751
 C     4.610451     1.844637     3.581707
 H     5.282281     0.974997     3.510363
 H     4.635543     2.205736     4.621496
 H     5.028316     2.640487     2.942626
 C     2.264193     2.692811     3.286037
 H     2.312050     3.113534     4.302231
 H     1.212796     2.433942     3.088519
 H     2.549080     3.492451     2.581162
