 102
scf done:    -3054.913334
 C    -1.127952     1.577091     3.188544
 H    -1.758674     2.466863     3.088763
 H    -1.641514     0.738911     3.669191
 C     0.288692     1.749211     3.376940
 H     0.683766     2.770310     3.435659
 H     0.838627     1.039734     4.001753
 H    -0.039022    -0.444859     2.160906
Ir    -0.111435     0.998485     1.396740
 C    -1.473761    -1.850969    -0.182246
 C    -3.325807    -0.132724     1.231940
 C    -2.428535     0.593864    -1.387597
 C     1.781358     0.615855    -1.529358
 C     3.408070     1.110660     0.763327
 C     2.278066    -1.483847     0.435829
 P     1.835492     0.295980     0.274468
 P    -1.806927    -0.088779     0.201602
 C    -0.219156     2.758262     0.658098
 O    -0.310421     3.842724     0.280276
 C    -0.936757    -2.680717     0.817897
 H    -0.767441    -2.271309     1.815935
 C    -1.628434    -2.389194    -1.460633
 H    -2.036130    -1.774308    -2.264994
 C    -0.583165    -3.991205     0.551807
 H    -0.153277    -4.628630     1.325444
 C    -1.241403    -3.698593    -1.752797
 H    -1.356616    -4.069542    -2.771570
 C    -0.712500    -4.507958    -0.743865
 O    -0.287089    -5.775144    -0.926067
 C    -0.342421    -6.322701    -2.211506
 H     0.266577    -5.745310    -2.930136
 H     0.062951    -7.340209    -2.140008
 H    -1.377568    -6.378855    -2.593005
 C    -3.825294    -1.290643     1.821637
 H    -3.347206    -2.247396     1.602829
 C    -3.967963     1.094651     1.496003
 O    -3.452242     2.170093     0.873797
 C    -3.939997     3.448795     1.155419
 H    -4.990539     3.566464     0.835339
 H    -3.311009     4.149039     0.591472
 H    -3.864045     3.685111     2.231449
 C    -4.930117    -1.247922     2.674392
 H    -5.303265    -2.167791     3.129847
 C    -5.074783     1.143128     2.347034
 H    -5.570486     2.092018     2.554368
 C    -5.549814    -0.030387     2.934261
 H    -6.415085     0.017174     3.600034
 C    -1.707015     1.594334    -2.034486
 H    -0.758485     1.913725    -1.602466
 C    -3.655218     0.176398    -1.950599
 O    -4.303692    -0.811732    -1.310294
 C    -5.587079    -1.188523    -1.714148
 H    -6.284797    -0.333250    -1.703519
 H    -5.930777    -1.936746    -0.988762
 H    -5.586852    -1.638224    -2.723067
 C    -2.165867     2.182097    -3.212623
 H    -1.570857     2.954417    -3.703238
 C    -4.128223     0.771203    -3.124819
 H    -5.076630     0.455185    -3.560137
 C    -3.379452     1.769229    -3.749296
 H    -3.757859     2.221940    -4.669351
 C     0.943320    -0.137593    -2.366412
 H     0.376516    -0.975374    -1.958069
 C     2.425540     1.725000    -2.079590
 H     3.068607     2.346139    -1.451597
 C     0.787200     0.181559    -3.705271
 H     0.126636    -0.399764    -4.351038
 C     2.256457     2.074919    -3.420093
 H     2.770067     2.956242    -3.805274
 C     1.438266     1.297408    -4.245850
 O     1.206618     1.553231    -5.551098
 C     1.808749     2.673558    -6.132154
 H     2.911416     2.613051    -6.100673
 H     1.486032     2.697957    -7.180971
 H     1.494395     3.611913    -5.640942
 C     3.386385     2.094865     1.747915
 H     2.416172     2.344552     2.183584
 C     4.645836     0.746925     0.189255
 O     4.609501    -0.192341    -0.770964
 C     5.796864    -0.649705    -1.347809
 H     6.324633     0.152919    -1.892697
 H     5.512736    -1.436268    -2.058227
 H     6.479124    -1.079461    -0.593737
 C     4.557178     2.722829     2.173848
 H     4.517175     3.492396     2.947347
 C     5.823532     1.368816     0.617161
 H     6.784383     1.094221     0.181032
 C     5.771100     2.351909     1.606186
 H     6.699366     2.829914     1.929782
 C     2.381826    -2.373323    -0.632408
 H     2.255238    -2.002204    -1.649035
 C     2.517817    -1.972616     1.738468
 O     2.504612    -1.059880     2.723426
 C     2.622035    -1.465662     4.054828
 H     1.814034    -2.161164     4.341717
 H     2.542806    -0.557024     4.664452
 H     3.596904    -1.945165     4.253437
 C     2.654876    -3.725825    -0.431301
 H     2.711169    -4.403860    -1.285225
 C     2.780113    -3.330949     1.946948
 H     2.950247    -3.710258     2.954836
 C     2.841078    -4.202704     0.860793
 H     3.040386    -5.263011     1.033926
