 106
scf done:    -2833.415606
 C     1.243599    -2.888255    -1.561666
 H     2.050461    -2.712721    -2.279744
 H     1.542841    -3.515791    -0.718236
 C    -0.117129    -2.935620    -2.012437
 H    -0.332654    -2.804287    -3.077660
 H    -0.821370    -3.593926    -1.496462
 H    -0.181408    -1.988971     0.367076
Ir     0.221730    -1.087018    -0.933883
 C     0.943221     0.192582     2.291499
 O     3.050515    -0.553598     0.855204
 O     1.792864     1.618515     0.116808
 C    -2.564608     0.872157    -1.943460
 O    -3.103067    -1.184793    -0.364200
 O    -1.876694     0.804245     0.757855
 P    -1.825244    -0.150450    -0.611036
 P     1.523180     0.035564     0.563197
 C     0.778368    -0.103151    -2.492204
 O     1.137574     0.494101    -3.404976
 H    -0.088975     0.550795     2.127887
 C     1.675089     1.205880     3.168542
 H     1.725104     2.186560     2.672962
 H     2.715105     0.872559     3.324334
 C     0.979975     1.331889     4.521922
 H     1.522970     2.051179     5.156091
 H    -0.031127     1.751757     4.369328
 C     0.862147    -0.016101     5.224215
 H     0.320829     0.093488     6.177807
 H     1.874199    -0.378609     5.480482
 C     0.175738    -1.047218     4.335454
 H    -0.876585    -0.748732     4.176410
 H     0.148705    -2.029844     4.834013
 C     0.867789    -1.171398     2.982396
 H     1.892193    -1.555703     3.122591
 H     0.339459    -1.896091     2.344342
 C     3.801589    -1.155279    -0.125606
 C     4.083316    -0.497551    -1.320089
 H     3.707195     0.513361    -1.484485
 C     4.273015    -2.450047     0.130643
 C     3.914245    -3.139657     1.409787
 H     4.385873    -4.129659     1.470953
 H     4.225357    -2.549251     2.285368
 H     2.822744    -3.269988     1.489185
 C     4.845393    -1.137663    -2.294995
 H     5.059691    -0.623978    -3.234696
 C     5.045523    -3.063438    -0.858422
 H     5.419897    -4.075050    -0.679477
 C     5.328717    -2.423078    -2.064298
 H     5.927938    -2.930602    -2.823430
 C     2.869492     2.461004     0.159156
 C     3.989819     2.256890     0.966636
 H     4.050866     1.371361     1.594939
 C     2.785866     3.581028    -0.689800
 C     1.593306     3.770499    -1.574962
 H     0.662989     3.816867    -0.989378
 H     1.682220     4.696729    -2.158564
 H     1.483059     2.929339    -2.276736
 C     5.036400     3.176952     0.942799
 H     5.910704     3.005370     1.574952
 C     3.847752     4.487543    -0.683459
 H     3.789414     5.362134    -1.337235
 C     4.969005     4.298333     0.122827
 H     5.786850     5.021759     0.104033
 H    -2.252207     0.292626    -2.834081
 C    -1.866275     2.232615    -2.004188
 H    -0.774146     2.112212    -1.953957
 H    -2.160302     2.821993    -1.119425
 C    -2.269021     2.987724    -3.265220
 H    -1.783866     3.977072    -3.279666
 H    -1.890254     2.442175    -4.148114
 C    -3.784264     3.132445    -3.361773
 H    -4.062829     3.641070    -4.298813
 H    -4.136309     3.780138    -2.538480
 C    -4.483759     1.780380    -3.262578
 H    -4.222567     1.168592    -4.145276
 H    -5.577582     1.911578    -3.289157
 C    -4.084273     1.028013    -1.995606
 H    -4.430034     1.589383    -1.113254
 H    -4.568588     0.041864    -1.954604
 C    -3.020797    -2.316953     0.405666
 C    -2.598525    -2.254604     1.732329
 H    -2.304032    -1.292970     2.154869
 C    -3.412210    -3.525544    -0.187161
 C    -3.863202    -3.548253    -1.614810
 H    -4.104352    -4.570266    -1.936746
 H    -4.755432    -2.918961    -1.759941
 H    -3.082403    -3.148111    -2.280147
 C    -2.545733    -3.419771     2.493612
 H    -2.207263    -3.370753     3.531254
 C    -3.353135    -4.677889     0.601386
 H    -3.648826    -5.632403     0.157511
 C    -2.921593    -4.635027     1.926966
 H    -2.881552    -5.553570     2.516502
 C    -2.875533     1.604048     1.250802
 C    -4.175596     1.127543     1.432925
 H    -4.415807     0.105820     1.140544
 C    -2.515534     2.908524     1.629578
 C    -1.102388     3.393626     1.501903
 H    -1.072057     4.462380     1.245128
 H    -0.563110     3.274457     2.456347
 H    -0.539445     2.828732     0.748843
 C    -5.149458     1.966216     1.967538
 H    -6.166500     1.591358     2.103144
 C    -3.518836     3.727106     2.159476
 H    -3.259593     4.749479     2.448702
 C    -4.824452     3.272703     2.326527
 H    -5.585497     3.936756     2.742061
