  78
scf done:    -2216.919214
 C     1.213979    -2.934235    -0.990486
 H     1.607113    -2.941176    -2.012284
 H     1.976564    -3.130437    -0.230576
 C    -0.137578    -3.359505    -0.759669
 H    -0.739687    -3.685962    -1.614442
 H    -0.382357    -3.882100     0.169380
 H     0.343650    -1.605695     1.052117
Ir     0.011331    -1.210531    -0.501836
 C     3.257462    -0.398394     0.439617
 O     2.196511     1.398228    -1.152066
 O     1.320873     1.284489     1.248581
 C    -2.312721     1.419420    -0.357444
 O    -3.303524    -0.910444     0.294001
 O    -1.655654     0.178609     1.959689
 P    -1.831887    -0.179477     0.380444
 P     1.649004     0.319170    -0.038075
 C    -0.539237    -0.894793    -2.317619
 O    -0.932185    -0.749175    -3.387389
 C     3.306483    -1.233020     1.564223
 C     4.418371    -0.183909    -0.308616
 C     5.661613    -1.615779     1.190043
 C     5.615588    -0.793138     0.066642
 C     4.504266    -1.833831     1.939495
 H     2.393318    -1.419573     2.135805
 H     4.534536    -2.482614     2.818189
 H     6.600265    -2.093140     1.481720
 H     6.519188    -0.621479    -0.523509
 H     4.374323     0.469265    -1.181521
 C     1.503122     1.684315    -2.370242
 H     0.436299     1.440083    -2.228059
 C     2.078001     0.825911    -3.478828
 H     2.023839    -0.237982    -3.205672
 H     3.133555     1.084663    -3.657074
 H     1.518471     0.969362    -4.414804
 C     1.633070     3.168312    -2.636796
 H     1.173235     3.751345    -1.826913
 H     2.692842     3.454960    -2.717496
 H     1.126544     3.432241    -3.576771
 C     2.287017     2.193265     1.794538
 H     3.265718     2.000897     1.320763
 C     2.392389     1.918406     3.279689
 H     2.737365     0.890225     3.457075
 H     1.409719     2.041112     3.759017
 H     3.104453     2.611062     3.753004
 C     1.859981     3.612306     1.475283
 H     1.794761     3.753962     0.387970
 H     0.877213     3.831506     1.921226
 H     2.587056     4.334633     1.875937
 C    -3.466852     1.571147    -1.130016
 C    -1.434457     2.501102    -0.202792
 C    -2.869715     3.870275    -1.581395
 C    -1.718451     3.722907    -0.805317
 C    -3.739814     2.793967    -1.743632
 H    -4.148748     0.726112    -1.239468
 H    -4.641888     2.906648    -2.350042
 H    -3.088171     4.827748    -2.060602
 H    -1.036638     4.566478    -0.670119
 H    -0.527316     2.371376     0.393353
 C    -3.424844    -2.328332     0.124815
 H    -2.655358    -2.641616    -0.601774
 C    -4.803684    -2.581012    -0.443769
 H    -4.933677    -2.048499    -1.397235
 H    -5.581347    -2.235223     0.254899
 H    -4.953202    -3.655745    -0.624746
 C    -3.168367    -3.048180     1.433694
 H    -2.167161    -2.801788     1.817125
 H    -3.913275    -2.766643     2.193565
 H    -3.219794    -4.137367     1.285167
 C    -2.575395     0.995401     2.692430
 H    -3.165261     1.597819     1.978115
 C    -1.748256     1.925919     3.553929
 H    -1.092103     2.544605     2.926283
 H    -1.115037     1.343453     4.240448
 H    -2.397114     2.586995     4.147471
 C    -3.516638     0.114294     3.488631
 H    -4.119686    -0.505111     2.811969
 H    -2.946217    -0.547992     4.157809
 H    -4.195383     0.728487     4.099545
