  74
scf done:    -1916.106104
 C    -0.593473    -3.389099    -0.918664
 H    -0.879424    -4.093639    -0.129916
 H    -1.331832    -3.331711    -1.725482
 C     0.806565    -3.249806    -1.243323
 H     1.536048    -3.853316    -0.691611
 H     1.094242    -3.081770    -2.286174
 H    -0.285915    -1.032370    -1.767374
Ir     0.114090    -1.478758    -0.245657
 C    -1.821169     1.328366    -0.937019
 C    -3.336192    -1.043376    -0.297456
 C    -2.011820     0.637570     1.873240
 C     1.531455     1.421206     1.095697
 C     3.471798    -0.463875     0.109629
 C     1.838381     1.276417    -1.794991
 P     1.763427     0.207410    -0.268989
 P    -1.773752    -0.131266     0.187712
 C     0.629313    -2.176718     1.449686
 O     0.994401    -2.658925     2.432486
 C    -1.739645     2.654357    -0.496983
 C    -1.867413     1.094873    -2.321334
 C    -1.722123     3.462909    -2.777209
 C    -1.823732     2.146348    -3.230307
 C    -1.683076     3.710665    -1.408437
 H    -1.698619     2.883050     0.567351
 H    -1.608459     4.736261    -1.037891
 H    -1.676767     4.289829    -3.489775
 H    -1.857776     1.935353    -4.301863
 H    -1.910461     0.068371    -2.691722
 H    -2.995426    -1.499152    -1.243565
 C    -3.613845    -2.184952     0.673829
 H    -4.351143    -2.879733     0.241337
 H    -2.697629    -2.752501     0.892961
 H    -4.032357    -1.814075     1.622339
 C    -4.583108    -0.217576    -0.590029
 H    -4.374481     0.632708    -1.255043
 H    -5.333882    -0.853191    -1.087604
 H    -5.046149     0.173390     0.325798
 H    -1.211706     1.398829     1.880023
 C    -3.355015     1.325182     2.102678
 H    -3.300282     1.955227     3.005383
 H    -3.664729     1.964270     1.264489
 H    -4.150877     0.585165     2.273406
 C    -1.698755    -0.325479     3.011543
 H    -0.690036    -0.743143     2.927220
 H    -1.756218     0.213164     3.970908
 H    -2.410223    -1.162693     3.055982
 C     1.639458     0.951203     2.415276
 C     1.154189     2.755011     0.900682
 C     0.983475     3.105974     3.288931
 C     0.877942     3.587165     1.987148
 C     1.373655     1.781957     3.498342
 H     1.917800    -0.088188     2.603497
 H     1.461734     1.388919     4.513991
 H     0.766270     3.757914     4.138185
 H     0.576953     4.622523     1.807503
 H     1.050315     3.158689    -0.106061
 H     3.239917    -1.122845     0.965113
 C     3.961488    -1.358529    -1.023245
 H     4.822212    -1.957830    -0.686786
 H     3.171790    -2.046040    -1.357880
 H     4.295817    -0.763771    -1.887143
 C     4.535389     0.530950     0.558577
 H     4.172474     1.204248     1.348194
 H     5.403186    -0.017327     0.960335
 H     4.899297     1.148410    -0.273480
 H     0.880396     1.821635    -1.714218
 C     2.985229     2.282494    -1.844793
 H     2.788181     3.030378    -2.629935
 H     3.137079     2.819722    -0.898639
 H     3.931422     1.785107    -2.104567
 C     1.772261     0.471736    -3.088918
 H     0.951271    -0.256604    -3.062892
 H     1.607965     1.155781    -3.936729
 H     2.707383    -0.075327    -3.278086
