 102
scf done:    -2606.837574
 C    -0.752581    -4.284144    -0.602687
 H    -1.311525    -4.797934     0.187634
 H    -1.251777    -4.325261    -1.576057
 C     0.692043    -4.317499    -0.561166
 H     1.183106    -4.853345     0.258480
 H     1.242850    -4.382997    -1.505290
 H     0.066728    -2.112696    -1.722492
Ir     0.002380    -2.338386    -0.093684
 O    -1.538386     0.340887    -1.305003
 C    -3.358484    -1.713807    -0.520472
 C    -2.041317     0.104915     1.418267
 O     1.679692     0.086249     1.340623
 C     3.400600    -1.762145     0.007251
 C     1.881845     0.334663    -1.431147
 P     1.760987    -0.857921    -0.012266
 P    -1.742145    -0.835107    -0.163950
 C     0.003145    -2.633427     1.799700
 O     0.041067    -2.771325     2.940815
 C    -2.567514     1.001617    -2.048778
 H    -3.510276     0.940738    -1.484163
 C    -2.718742     0.317010    -3.395317
 H    -2.972784    -0.746850    -3.288442
 H    -1.773236     0.378291    -3.955133
 H    -3.507124     0.801455    -3.991632
 C    -2.201044     2.462709    -2.195994
 H    -2.102815     2.942599    -1.213924
 H    -1.252915     2.572427    -2.744121
 H    -2.985421     2.989951    -2.759867
 H    -3.313229    -1.969022    -1.589716
 H    -3.184167    -2.661937     0.010328
 C    -4.687592    -1.144389    -0.127127
 C    -5.162608    -1.315141     1.179911
 H    -4.580451    -1.903268     1.894352
 C    -5.493247    -0.444385    -1.034330
 H    -5.166872    -0.349079    -2.073161
 C    -6.374066    -0.751583     1.573458
 H    -6.729068    -0.889511     2.597494
 C    -6.706816     0.136788    -0.656927
 C    -7.515352     0.932621    -1.639772
 H    -8.594786     0.780957    -1.493045
 H    -7.318852     2.011533    -1.521823
 H    -7.268391     0.664636    -2.676877
 C    -7.135069    -0.017372     0.667813
 H    -8.083204     0.425630     0.984630
 H    -2.797185    -0.457679     1.986889
 H    -1.086705     0.013152     1.954587
 C    -2.407225     1.553346     1.298246
 C    -1.405617     2.523499     1.411016
 H    -0.373835     2.209400     1.579510
 C    -3.724452     1.972908     1.077634
 H    -4.518937     1.228263     1.003814
 C    -1.722251     3.876720     1.309416
 H    -0.932591     4.624875     1.414633
 C    -4.055167     3.324879     0.952364
 C    -5.470610     3.738435     0.668034
 H    -6.177822     2.934631     0.917954
 H    -5.752557     4.638745     1.234262
 H    -5.602422     3.974534    -0.401641
 C    -3.035459     4.277393     1.076632
 H    -3.275764     5.341142     0.994289
 C     2.762751     0.669020     2.071581
 H     3.634706     0.768289     1.406373
 C     3.096742    -0.231554     3.247369
 H     3.399593    -1.236498     2.920908
 H     2.213126    -0.346979     3.893193
 H     3.915106     0.195520     3.846973
 C     2.343859     2.053174     2.518186
 H     2.120969     2.689952     1.652856
 H     1.450414     1.994346     3.159041
 H     3.151271     2.525670     3.097591
 H     3.473737    -2.198206     1.014982
 H     3.164766    -2.605788    -0.659473
 C     4.678869    -1.109942    -0.423349
 C     5.017795    -1.065339    -1.782120
 H     4.366936    -1.546283    -2.517179
 C     5.567863    -0.540502     0.496837
 H     5.347264    -0.611680     1.564903
 C     6.180616    -0.423730    -2.201842
 H     6.430283    -0.394133    -3.265114
 C     6.734388     0.116083     0.095343
 C     7.633381     0.768433     1.104931
 H     8.691868     0.686372     0.817825
 H     7.401899     1.843149     1.194324
 H     7.511815     0.322073     2.102162
 C     7.027203     0.175843    -1.273078
 H     7.936826     0.680628    -1.609788
 H     2.564884    -0.115479    -2.166901
 H     0.869813     0.316963    -1.858426
 C     2.273342     1.744029    -1.101674
 C     1.272023     2.698166    -0.894694
 H     0.227003     2.394765    -0.964396
 C     3.610895     2.143814    -0.995867
 H     4.404133     1.414097    -1.167430
 C     1.606420     4.018749    -0.601814
 H     0.812947     4.756547    -0.458556
 C     3.962964     3.458856    -0.679294
 C     5.406370     3.846538    -0.530397
 H     6.069417     3.088898    -0.971748
 H     5.617986     4.814630    -1.009121
 H     5.678544     3.946755     0.533989
 C     2.941246     4.398417    -0.489215
 H     3.196975     5.435630    -0.254588
