  94
scf done:    -2826.161639
 C     0.764502     0.736437     3.730087
 H     1.266805    -0.040506     4.314493
 H     1.334669     1.667898     3.669836
 C    -0.669178     0.789307     3.712983
 H    -1.237122     0.053428     4.290483
 H    -1.173503     1.754918     3.621558
 H     0.092365     1.649928     1.437997
Ir     0.031511     0.063969     1.806762
 C     2.751841     1.309114    -0.168886
 O     2.975220    -1.135530     1.004826
 O     1.582552    -0.795490    -1.135453
 C    -2.712310    -1.208180    -0.240233
 O    -2.960659     1.138740     1.054123
 O    -1.504353     0.946146    -1.064249
 P    -1.749884     0.193844     0.396476
 P     1.795730    -0.131470     0.381325
 C    -0.010917    -1.772169     2.395770
 O    -0.016954    -2.847301     2.795945
 C     3.549828     1.263295    -1.320069
 C     2.746289     2.458173     0.625659
 C     4.345210     3.496120    -0.854627
 C     3.542917     3.548939     0.282927
 C     4.342991     2.354782    -1.657808
 H     3.544066     0.370283    -1.946375
 H     4.968406     2.312241    -2.552679
 H     4.972350     4.350696    -1.121008
 H     3.530495     4.446247     0.905825
 H     2.104232     2.492164     1.508601
 C     4.202680    -1.306375     0.411783
 C     4.369782    -2.220830    -0.626280
 H     3.515731    -2.801711    -0.978103
 C     5.287061    -0.557685     0.866533
 H     5.131597     0.161902     1.672287
 C     5.626256    -2.373754    -1.208254
 H     5.749433    -3.089881    -2.025533
 C     6.535019    -0.723726     0.276048
 H     7.378217    -0.126607     0.634282
 C     6.729675    -1.631784    -0.772454
 C     8.086507    -1.823155    -1.386202
 H     8.014522    -2.226714    -2.406452
 H     8.692836    -2.530541    -0.795774
 H     8.645570    -0.876766    -1.431811
 C     0.783598    -1.879632    -1.371294
 C     0.745090    -2.979682    -0.512350
 H     1.372099    -2.996986     0.379586
 C     0.002222    -1.875741    -2.525362
 H     0.036124    -1.009064    -3.186051
 C    -0.095570    -4.050499    -0.803004
 H    -0.130069    -4.895280    -0.109713
 C    -0.819606    -2.961024    -2.807729
 H    -1.436841    -2.939983    -3.709733
 C    -0.891380    -4.066761    -1.952752
 C    -1.767357    -5.241652    -2.273918
 H    -2.162852    -5.707577    -1.359729
 H    -1.208056    -6.017079    -2.824254
 H    -2.622219    -4.943975    -2.897620
 C    -2.890308    -2.316598     0.591488
 C    -3.374927    -1.153030    -1.472241
 C    -4.408911    -3.287303    -1.012666
 C    -4.220758    -2.189904    -1.852906
 C    -3.737765    -3.353392     0.206476
 H    -2.372030    -2.366226     1.551084
 H    -3.872580    -4.215706     0.863474
 H    -5.077574    -4.097884    -1.312789
 H    -4.742987    -2.137225    -2.811192
 H    -3.227684    -0.290033    -2.122384
 C    -4.202767     1.248185     0.476519
 C    -4.423687     2.116012    -0.590697
 H    -3.600456     2.716099    -0.980959
 C    -5.250120     0.474938     0.976420
 H    -5.053665    -0.205979     1.806338
 C    -5.695161     2.197685    -1.155678
 H    -5.860079     2.878247    -1.995653
 C    -6.511930     0.567520     0.401177
 H    -7.324263    -0.049775     0.794996
 C    -6.759837     1.427997    -0.676499
 C    -8.132163     1.534594    -1.276161
 H    -8.102644     2.004438    -2.269559
 H    -8.797021     2.144778    -0.642230
 H    -8.603579     0.545643    -1.380763
 C    -0.757939     2.080650    -1.239850
 C    -0.900461     3.201919    -0.419212
 H    -1.602173     3.178114     0.415506
 C     0.148880     2.105019    -2.296678
 H     0.264833     1.214238    -2.913512
 C    -0.124981     4.331560    -0.664253
 H    -0.234425     5.199253    -0.007741
 C     0.909743     3.245353    -2.530743
 H     1.629614     3.244647    -3.353098
 C     0.790912     4.379556    -1.720907
 C     1.602223     5.612366    -1.991304
 H     1.798090     6.175568    -1.067132
 H     1.077362     6.291342    -2.684417
 H     2.570741     5.359794    -2.446455
