 114
scf done:    -2689.759910
 C    -0.737469     2.174056    -2.581176
 H    -1.276486     1.849263    -3.477718
 H    -1.242890     2.982246    -2.041878
 C     0.698817     2.134677    -2.587231
 H     1.211372     1.769613    -3.483649
 H     1.256805     2.905069    -2.048807
 H    -0.080994     1.757422    -0.154729
Ir    -0.054955     0.579695    -1.294096
 C    -3.405424     0.886474    -0.404871
 C    -2.387463    -1.916180    -0.371758
 C    -1.761327    -0.144200     1.794649
 C     1.760345    -1.612383     0.881318
 C     3.207404    -0.563159    -1.525779
 C     2.754594     1.087484     0.849845
 P     1.906356    -0.142767    -0.253373
 P    -1.890408    -0.140150    -0.060540
 C    -0.116328    -0.783406    -2.627910
 O    -0.180490    -1.629779    -3.409914
 H    -2.986573     1.909368    -0.353929
 C    -4.584247     0.796125     0.567083
 H    -4.262818     1.002207     1.599760
 H    -4.993023    -0.226426     0.569014
 C    -5.684607     1.780893     0.176892
 H    -6.536675     1.681799     0.868993
 H    -5.306058     2.812994     0.295485
 C    -6.139607     1.580946    -1.263877
 H    -6.912723     2.320315    -1.529243
 H    -6.613944     0.586402    -1.356977
 C    -4.962581     1.664887    -2.228790
 H    -4.547868     2.688966    -2.214301
 H    -5.295240     1.479936    -3.263148
 C    -3.864653     0.677874    -1.850221
 H    -4.255808    -0.346153    -1.965113
 H    -3.000313     0.770765    -2.524113
 H    -2.426689    -2.008713    -1.467309
 H    -1.504806    -2.490299    -0.050128
 C    -3.633537    -2.461764     0.256577
 C    -3.664806    -2.841920     1.605883
 H    -2.752630    -2.795818     2.204742
 C    -4.806377    -2.598890    -0.492790
 H    -4.786765    -2.346394    -1.556879
 C    -4.848040    -3.288160     2.185682
 H    -4.859908    -3.578758     3.239055
 C    -6.007806    -3.038914     0.073061
 C    -7.250818    -3.124894    -0.764397
 H    -8.068518    -3.623403    -0.225584
 H    -7.602513    -2.119928    -1.050898
 H    -7.067947    -3.680124    -1.697179
 C    -6.016746    -3.373337     1.430423
 H    -6.943542    -3.719465     1.895626
 H    -2.763380    -0.348610     2.203756
 H    -1.144865    -1.024216     2.031754
 C    -1.163453     1.066598     2.448712
 C    -1.746949     2.335413     2.350342
 H    -2.649160     2.479366     1.754497
 C    -0.004938     0.934530     3.223342
 H     0.454345    -0.053844     3.322223
 C    -1.186368     3.422671     3.015974
 H    -1.656438     4.405625     2.933496
 C     0.582989     2.017139     3.885327
 C     1.862882     1.849472     4.650857
 H     2.077566     0.790438     4.853836
 H     2.712737     2.257987     4.078378
 H     1.833364     2.384424     5.611868
 C    -0.030853     3.269688     3.777769
 H     0.406494     4.132461     4.287475
 H     0.899779    -1.292697     1.497750
 C     2.907463    -1.938161     1.840385
 H     3.192371    -1.049290     2.423870
 H     3.801135    -2.241807     1.273234
 C     2.502413    -3.064070     2.790190
 H     3.342812    -3.310962     3.459081
 H     1.680859    -2.711780     3.441945
 C     2.041380    -4.305637     2.035124
 H     1.728866    -5.092481     2.740639
 H     2.895193    -4.716961     1.466188
 C     0.912683    -3.977138     1.064012
 H     0.017688    -3.667296     1.636070
 H     0.618023    -4.872866     0.493545
 C     1.316727    -2.856710     0.112890
 H     2.148820    -3.208986    -0.516386
 H     0.494925    -2.601212    -0.573912
 H     2.671690    -1.135675    -2.296795
 H     3.442598     0.412237    -1.981058
 C     4.435793    -1.300380    -1.085192
 C     5.481326    -0.672375    -0.393479
 H     5.454100     0.404071    -0.218641
 C     4.549690    -2.672727    -1.336452
 H     3.767087    -3.167659    -1.919344
 C     6.563384    -1.411298     0.075365
 H     7.368592    -0.907641     0.615825
 C     5.623205    -3.435274    -0.865339
 C     5.668768    -4.915517    -1.111855
 H     4.971744    -5.446504    -0.441862
 H     5.374580    -5.160580    -2.143391
 H     6.673283    -5.324952    -0.935367
 C     6.629062    -2.786104    -0.142430
 H     7.479546    -3.359558     0.235831
 H     2.151112     1.086297     1.768824
 H     3.751403     0.698422     1.103385
 C     2.823782     2.477558     0.294791
 C     3.841754     2.878107    -0.580154
 H     4.642702     2.185680    -0.848088
 C     1.826170     3.399803     0.620772
 H     1.031288     3.097480     1.304365
 C     3.841461     4.161173    -1.120269
 H     4.639442     4.462512    -1.803188
 C     1.802937     4.688316     0.078501
 C     0.681246     5.624194     0.423027
 H     0.587507     5.750195     1.512942
 H     0.826564     6.616355    -0.026850
 H    -0.280561     5.224124     0.063730
 C     2.825438     5.059655    -0.799850
 H     2.825070     6.061753    -1.237171
