 102
scf done:    -3055.063728
 C     1.289941     3.566314    -0.474843
 H     2.075129     3.833694     0.238889
 H     1.622263     3.569376    -1.516307
 C    -0.074759     3.857143    -0.174095
 H    -0.324796     4.348814     0.770743
 H    -0.775619     4.078452    -0.982435
 H    -0.094300     1.668708    -1.558852
Ir     0.266855     1.716497     0.036939
 C     1.635860    -1.025770    -1.887700
 O     3.354509     0.535893    -0.749085
 O     1.976293    -0.984552     0.807523
 C    -2.073335    -0.386479     1.745620
 O    -3.104836     1.680285     0.555916
 O    -2.236261    -0.222951    -0.934340
 P    -1.751116     0.731866     0.366667
 P     1.774182     0.086893    -0.475796
 C     0.693275     1.870454     1.913282
 O     0.939045     1.972847     3.028161
 C     2.752602    -1.679022    -2.438526
 H     3.752398    -1.444795    -2.070878
 C     0.364966    -1.323887    -2.380128
 H    -0.510052    -0.811433    -1.975231
 C     2.588828    -2.617967    -3.440776
 H     3.443681    -3.137478    -3.877256
 C     0.190758    -2.273175    -3.385582
 H    -0.817042    -2.483970    -3.743692
 C     1.305477    -2.930713    -3.918052
 O     1.244417    -3.863648    -4.884320
 C    -0.007452    -4.218704    -5.403733
 H    -0.513319    -3.359534    -5.877778
 H     0.174752    -4.988002    -6.164610
 H    -0.671058    -4.634843    -4.625525
 C     3.989085     1.514063    -0.035176
 C     3.910013     1.575670     1.354633
 H     3.330760     0.823069     1.892688
 C     4.736358     2.451894    -0.748436
 H     4.775454     2.379422    -1.836411
 C     4.553994     2.601720     2.057828
 C     4.439424     2.664888     3.553025
 H     4.897009     3.579790     3.954137
 H     3.384846     2.637716     3.867089
 H     4.938789     1.803071     4.024583
 C     5.388919     3.462417    -0.052211
 H     5.970745     4.206653    -0.601361
 C     5.292614     3.545096     1.337854
 H     5.799010     4.353167     1.871671
 C     2.683691    -2.155879     0.699998
 C     4.069286    -2.152819     0.839791
 H     4.582179    -1.206326     1.023147
 C     1.990881    -3.342832     0.461352
 H     0.906220    -3.314103     0.344106
 C     4.794060    -3.345374     0.731989
 C     6.285584    -3.340022     0.903348
 H     6.742211    -4.250389     0.490120
 H     6.743380    -2.470113     0.409352
 H     6.558332    -3.286969     1.970411
 C     2.707523    -4.529852     0.354040
 H     2.177966    -5.464996     0.157155
 C     4.095933    -4.532075     0.483122
 H     4.648540    -5.470406     0.388361
 C    -1.032196    -1.232467     2.157104
 H    -0.019002    -1.078740     1.775103
 C    -3.357391    -0.588059     2.259981
 H    -4.169861     0.070744     1.950241
 C    -1.283720    -2.285564     3.022092
 H    -0.486721    -2.961081     3.338429
 C    -3.617526    -1.639049     3.133434
 H    -4.632110    -1.782478     3.504796
 C    -2.583618    -2.511970     3.497521
 O    -2.748267    -3.588501     4.287651
 C    -4.026344    -3.875488     4.785558
 H    -4.750847    -4.055990     3.971972
 H    -3.931194    -4.788363     5.386780
 H    -4.408194    -3.063182     5.428176
 C    -3.352964     2.787589    -0.208939
 C    -3.149725     2.790375    -1.587627
 H    -2.766429     1.892249    -2.075089
 C    -3.835415     3.922468     0.443258
 H    -3.979615     3.890039     1.524359
 C    -3.405507     3.944770    -2.337285
 C    -3.140743     3.946059    -3.814922
 H    -3.666053     3.118234    -4.316090
 H    -3.462100     4.887102    -4.282402
 H    -2.065829     3.815715    -4.019634
 C    -4.104196     5.064789    -0.301937
 H    -4.479279     5.960217     0.199549
 C    -3.886254     5.081009    -1.680052
 H    -4.090782     5.988747    -2.253241
 C    -3.240347    -1.150258    -0.810640
 C    -2.904614    -2.457183    -0.464545
 H    -1.851589    -2.702943    -0.312146
 C    -4.569892    -0.781013    -1.009355
 H    -4.809764     0.248166    -1.281638
 C    -3.898061    -3.417901    -0.260366
 C    -3.526775    -4.794154     0.210208
 H    -2.668989    -5.194403    -0.351132
 H    -3.233439    -4.772023     1.273335
 H    -4.364006    -5.498698     0.106459
 C    -5.561893    -1.742988    -0.834151
 H    -6.609038    -1.470538    -0.987012
 C    -5.233063    -3.043730    -0.454057
 H    -6.025322    -3.781895    -0.303798
