  90
scf done:    -4213.363405
 C    -0.601372    -0.507913    -3.636330
 H    -1.203106    -1.365719    -3.957082
 H    -1.006674     0.452929    -3.968996
 C     0.826500    -0.669788    -3.542958
 H     1.255548    -1.645161    -3.797383
 H     1.481315     0.167428    -3.803236
 H     0.182294     1.084684    -1.846289
Ir    -0.001668    -0.513640    -1.568334
 C    -2.088883     1.872098     0.140085
 C    -3.433038    -0.572362    -0.626641
 C    -1.583693    -0.645678     1.540117
 C     2.091361    -1.135641     1.399088
 C     3.426818    -0.015325    -0.886620
 C     1.610946     1.627672     0.605731
 P     1.774132    -0.063880    -0.092849
 P    -1.780542     0.061094    -0.143502
 C    -0.273105    -2.402570    -1.432119
 O    -0.479466    -3.535241    -1.420922
 H    -1.163248     2.212650     0.640690
 C    -3.295559     2.198750     1.021903
 H    -3.265743     1.648197     1.974164
 H    -4.211811     1.866397     0.504612
 C    -3.383748     3.700862     1.280959
 H    -4.253222     3.919705     1.921772
 H    -2.489778     4.030361     1.841499
 C    -3.472436     4.480114    -0.025511
 H    -3.491899     5.563754     0.173251
 H    -4.426732     4.235929    -0.526350
 C    -2.313447     4.131005    -0.951138
 H    -1.373514     4.495063    -0.501038
 H    -2.419444     4.651786    -1.916538
 C    -2.198016     2.627952    -1.186236
 H    -3.089399     2.267810    -1.731792
 H    -1.326996     2.397877    -1.816862
 C    -3.723543    -0.706246    -1.988559
 H    -2.937868    -0.493974    -2.716664
 C    -4.428222    -0.880542     0.310259
 H    -4.220013    -0.792755     1.378971
 C    -4.981320    -1.123864    -2.414113
 H    -5.207551    -1.228615    -3.476334
 C    -5.685811    -1.310528    -0.100935
 H    -6.459935    -1.557769     0.627243
 C    -5.956235    -1.425093    -1.464701
Cl    -7.519563    -1.957948    -1.981714
 C    -1.265869     0.117173     2.668154
 H    -1.258456     1.205289     2.613623
 C    -1.595035    -2.044002     1.666766
 H    -1.850651    -2.666804     0.806193
 C    -0.916532    -0.489959     3.874586
 H    -0.647594     0.111010     4.745091
 C    -1.263042    -2.662827     2.864526
 H    -1.263261    -3.750561     2.949462
 C    -0.898027    -1.878294     3.960347
Cl    -0.384779    -2.642549     5.426499
 H     1.193292    -0.982718     2.024901
 C     3.340459    -0.767193     2.202597
 H     3.346312     0.299213     2.474289
 H     4.228772    -0.925064     1.567532
 C     3.459699    -1.635431     3.452341
 H     4.359134    -1.350135     4.021633
 H     2.595391    -1.448672     4.115747
 C     3.502591    -3.114204     3.088427
 H     3.552361    -3.734428     3.997738
 H     4.426870    -3.318337     2.518185
 C     2.292663    -3.503629     2.248850
 H     1.385324    -3.417379     2.870640
 H     2.358921    -4.558811     1.938413
 C     2.134460    -2.615955     1.017450
 H     2.981378    -2.787457     0.328534
 H     1.223295    -2.894106     0.471908
 C     3.721700    -0.979755    -1.857206
 H     2.939475    -1.677181    -2.164878
 C     4.420933     0.901667    -0.523748
 H     4.213611     1.664030     0.230618
 C     4.981083    -1.042511    -2.445458
 H     5.210128    -1.795110    -3.201477
 C     5.680083     0.860639    -1.115414
 H     6.453214     1.579109    -0.838384
 C     5.954146    -0.116702    -2.071486
Cl     7.519059    -0.174525    -2.808882
 C     1.317775     1.879867     1.948943
 H     1.314794     1.068044     2.675353
 C     1.623316     2.713052    -0.284615
 H     1.852063     2.541259    -1.338886
 C     0.983472     3.161864     2.387013
 H     0.728453     3.346240     3.432044
 C     1.311138     3.997725     0.138808
 H     1.310123     4.832833    -0.563309
 C     0.961458     4.210612     1.473743
Cl     0.463704     5.787550     1.986117
