  98
scf done:    -2754.269201
 C    -1.012237    -0.107879    -3.714619
 H    -1.336778    -1.057395    -4.153421
 H    -1.773510     0.675467    -3.776151
 C     0.380046     0.242872    -3.787160
 H     1.069108    -0.448082    -4.284320
 H     0.670072     1.291306    -3.901682
 H    -0.525721     1.328795    -1.695933
Ir    -0.132533    -0.259756    -1.758110
 C    -2.022404     1.138990     0.806277
 C    -3.572102    -0.484881    -0.993032
 C    -2.027020    -1.736345     0.993289
 C     2.167228    -0.993021     0.825149
 C     3.274159     0.539427    -1.302333
 C     1.621569     1.821602     0.632665
 P     1.691378     0.294691    -0.389963
 P    -1.902036    -0.363457    -0.227918
 C     0.346787    -2.096513    -1.982291
 O     0.668360    -3.187314    -2.166414
 C    -2.386004     2.352322     0.197816
 H    -2.695738     2.359515    -0.850231
 C    -1.620102     1.167714     2.140240
 H    -1.359372     0.237669     2.649773
 C    -2.345242     3.542868     0.900323
 H    -2.633742     4.485781     0.432969
 C    -1.537131     2.366704     2.850520
 H    -1.186573     2.349262     3.882127
 C    -1.889094     3.564762     2.226888
 O    -1.809706     4.779715     2.808727
 C    -1.353342     4.861136     4.130683
 H    -0.329715     4.461325     4.233026
 H    -1.350637     5.925561     4.397810
 H    -2.019262     4.320541     4.826172
 C    -3.720644    -1.345843    -2.084010
 H    -2.841647    -1.856027    -2.483789
 C    -4.694144     0.183214    -0.491099
 H    -4.586221     0.858391     0.362043
 C    -4.977339    -1.536673    -2.651696
 H    -5.091989    -2.215016    -3.500734
 C    -5.959777     0.013086    -1.061962
 C    -7.148398     0.765675    -0.536592
 H    -8.039856     0.122826    -0.480965
 H    -6.956322     1.172325     0.466457
 H    -7.400904     1.614183    -1.194088
 C    -6.086203    -0.861124    -2.147778
 H    -7.068194    -1.011605    -2.605500
 C    -3.077792    -1.783414     1.919295
 H    -3.823789    -0.985957     1.946149
 C    -1.099920    -2.777511     0.964052
 H    -0.276843    -2.734765     0.250906
 C    -3.174885    -2.855820     2.799868
 H    -3.993956    -2.892358     3.522530
 C    -1.191653    -3.871796     1.832363
 C    -0.176156    -4.975849     1.783756
 H     0.427340    -4.917640     0.867093
 H     0.516453    -4.915237     2.638948
 H    -0.658876    -5.964510     1.818422
 C    -2.242315    -3.892508     2.754053
 H    -2.336699    -4.736251     3.443873
 C     1.410316    -1.147815     1.997675
 H     0.597041    -0.451709     2.208799
 C     3.186804    -1.911869     0.575683
 H     3.798983    -1.816643    -0.323664
 C     1.670471    -2.172168     2.890681
 H     1.077524    -2.294998     3.798789
 C     3.444708    -2.965385     1.455382
 H     4.242669    -3.669231     1.218230
 C     2.684843    -3.100907     2.620182
 O     2.839042    -4.092908     3.523076
 C     3.816006    -5.068623     3.289050
 H     4.829548    -4.632430     3.248360
 H     3.766395    -5.772264     4.129631
 H     3.628444    -5.618878     2.350082
 C     3.516646    -0.235016    -2.441415
 H     2.745216    -0.920020    -2.796951
 C     4.253556     1.439136    -0.869225
 H     4.070418     2.052519     0.016111
 C     4.729775    -0.120635    -3.115977
 H     4.918369    -0.734365    -4.000249
 C     5.467970     1.579161    -1.548903
 C     6.488252     2.582770    -1.094577
 H     6.398305     3.521233    -1.666896
 H     6.359620     2.833827    -0.032045
 H     7.513407     2.210688    -1.239143
 C     5.696054     0.780004    -2.675180
 H     6.642195     0.870249    -3.216567
 C     2.250551     1.917066     1.879517
 H     2.747010     1.047820     2.314345
 C     1.010678     2.956959     0.090155
 H     0.508242     2.870253    -0.876712
 C     2.255714     3.131937     2.563096
 H     2.747109     3.201520     3.537121
 C     1.025083     4.185307     0.755756
 C     0.378875     5.401660     0.161765
 H    -0.112047     5.168586    -0.792687
 H    -0.378343     5.810266     0.848892
 H     1.121451     6.194556    -0.022925
 C     1.653449     4.255545     2.005319
 H     1.671328     5.207789     2.543702
