  96
scf done:    -3000.709167
 C    -0.061232    -3.288625    -2.514987
 H     0.384276    -3.242565    -3.514559
 H     0.425318    -4.015359    -1.857207
 C    -1.477630    -3.065831    -2.374814
 H    -2.071433    -2.856511    -3.270962
 H    -2.024649    -3.620288    -1.606121
 H    -0.376232    -2.282946    -0.218332
Ir    -0.398425    -1.380671    -1.580630
 C     1.684900    -0.599995     1.114961
 C     3.030404    -1.677272    -1.257095
 C     2.137643     1.122600    -1.254933
 C    -1.751086     1.725408    -0.372031
 C    -3.663086    -0.147505    -1.288981
 C    -2.350943    -0.537529     1.299329
 P    -1.983266    -0.096551    -0.462950
 P     1.608407    -0.595238    -0.712377
 C    -0.348083    -0.422931    -3.238078
 O    -0.284191     0.144679    -4.239742
 C     1.130816     0.461237     1.844246
 H     0.708889     1.322373     1.325378
 C     2.156557    -1.705912     1.828756
 H     2.527951    -2.585656     1.300573
 C     1.104185     0.436461     3.234344
 H     0.674476     1.285782     3.773095
 C     2.129493    -1.726339     3.221856
 H     2.507357    -2.605597     3.751158
 C     1.616128    -0.651125     3.954119
 C     1.615575    -0.654309     5.453719
 H     0.677661    -0.243858     5.856523
 H     1.746445    -1.668688     5.856031
 H     2.436855    -0.032610     5.847234
 H     2.837330    -2.661048    -0.803983
 H     2.830610    -1.811502    -2.330624
 C     4.433420    -1.204918    -1.033454
 C     5.098447    -0.484819    -2.036764
 H     4.603345    -0.320493    -2.997712
 C     5.118865    -1.433463     0.168328
 H     4.638860    -1.996825     0.968833
 C     6.381520     0.020996    -1.846016
 H     6.896627     0.585056    -2.625383
 C     6.404332    -0.940684     0.375438
 H     6.938167    -1.116199     1.311081
 C     7.018863    -0.209202    -0.633753
 F     8.245904     0.269201    -0.438763
 H     2.886812     0.948185    -2.043264
 H     1.252388     1.542455    -1.749505
 C     2.653878     2.102377    -0.242219
 C     1.886726     3.229492     0.076065
 H     0.931803     3.386976    -0.428985
 C     3.868952     1.920137     0.429025
 H     4.486532     1.050050     0.208421
 C     2.301187     4.142341     1.042495
 H     1.698200     5.015563     1.298661
 C     4.301059     2.824556     1.393733
 H     5.246054     2.683324     1.921244
 C     3.507363     3.924759     1.694548
 F     3.912180     4.788192     2.627003
 C    -1.452872     2.402598    -1.564374
 H    -1.317039     1.839213    -2.490644
 C    -1.911680     2.485971     0.789829
 H    -2.164937     2.007299     1.736834
 C    -1.338931     3.787656    -1.593463
 H    -1.115057     4.287179    -2.540273
 C    -1.770355     3.873453     0.761041
 H    -1.897511     4.441790     1.686486
 C    -1.486989     4.552160    -0.426818
 C    -1.304659     6.040444    -0.454457
 H    -1.719257     6.515681     0.445470
 H    -0.234468     6.302458    -0.506211
 H    -1.787925     6.489226    -1.335062
 H    -3.467160     0.186019    -2.319422
 H    -3.924612    -1.213701    -1.357934
 C    -4.737299     0.667023    -0.638387
 C    -5.610903     0.104497     0.302316
 H    -5.547663    -0.961652     0.532205
 C    -4.870553     2.035215    -0.918224
 H    -4.208784     2.501632    -1.650828
 C    -6.574081     0.871900     0.953480
 H    -7.256971     0.433627     1.683340
 C    -5.826513     2.817188    -0.278442
 H    -5.930794     3.881654    -0.495584
 C    -6.666055     2.225137     0.656999
 F    -7.582268     2.969125     1.275939
 H    -1.567123    -0.045340     1.892412
 H    -3.316137    -0.080492     1.573739
 C    -2.321902    -2.007782     1.593582
 C    -3.276462    -2.895489     1.084268
 H    -4.093318    -2.524643     0.463143
 C    -1.287494    -2.532251     2.375873
 H    -0.524577    -1.860790     2.773234
 C    -3.201860    -4.262694     1.336524
 H    -3.940526    -4.959474     0.936597
 C    -1.196413    -3.894896     2.640936
 H    -0.385288    -4.304335     3.245682
 C    -2.156502    -4.747204     2.112365
 F    -2.076896    -6.055501     2.356519
