  94
scf done:    -3745.091432
 C    -0.829986     0.985102    -3.726165
 H    -1.204768     0.172592    -4.356841
 H    -1.532101     1.817758    -3.624176
 C     0.583054     1.253050    -3.703456
 H     1.246027     0.640242    -4.322266
 H     0.930787     2.282938    -3.582853
 H    -0.300659     1.899916    -1.407780
Ir    -0.003574     0.353819    -1.835632
 C    -2.620841     1.192008     0.350681
 O    -2.743960    -1.293856    -0.861865
 O    -1.015549    -0.883613     1.004540
 C     2.276085    -1.056556     0.445718
 O     3.061816     1.255409    -0.794650
 O     1.244979     1.381236     1.026873
 P     1.677420     0.491023    -0.306276
 P    -1.646806    -0.170143    -0.357730
 C     0.326821    -1.450824    -2.446380
 O     0.518737    -2.520516    -2.810366
 C    -2.066054     1.892227     1.430132
 H    -1.124522     1.552825     1.867290
 C    -3.787926     1.674555    -0.251022
 H    -4.224841     1.164840    -1.111053
 C    -2.683386     3.035500     1.925075
 H    -2.252972     3.585059     2.763702
 C    -4.416982     2.813269     0.242461
 H    -5.335122     3.184956    -0.214570
 C    -3.863120     3.484701     1.331383
Cl    -4.641714     4.901934     1.946302
 C    -4.113108    -1.365472    -0.771236
 C    -4.761739    -1.524100     0.448854
 H    -4.178587    -1.575923     1.368326
 C    -4.817066    -1.309295    -1.984594
 C    -4.070587    -1.136094    -3.270979
 H    -4.756363    -1.121774    -4.128477
 H    -3.486253    -0.201698    -3.274299
 H    -3.339766    -1.946782    -3.415851
 C    -6.152277    -1.613598     0.475177
 H    -6.664169    -1.734623     1.432393
 C    -6.209605    -1.406159    -1.926780
 H    -6.778578    -1.363323    -2.859483
 C    -6.878205    -1.552343    -0.711399
 H    -7.968047    -1.622685    -0.694359
 C    -1.639985    -1.746002     1.868317
 C    -2.268161    -1.252054     3.010562
 H    -2.291675    -0.175055     3.180168
 C    -1.567498    -3.122912     1.600565
 C    -0.861105    -3.627468     0.380772
 H    -1.437103    -3.399898    -0.529210
 H     0.120902    -3.145716     0.266984
 H    -0.712345    -4.714086     0.433585
 C    -2.867982    -2.136069     3.905566
 H    -3.365129    -1.750213     4.798365
 C    -2.178115    -3.984555     2.517166
 H    -2.136919    -5.060841     2.329902
 C    -2.827954    -3.505598     3.653878
 H    -3.296419    -4.206373     4.348458
 C     3.003877    -1.965501    -0.332947
 H     3.309404    -1.706226    -1.349089
 C     1.872286    -1.432422     1.730348
 H     1.255443    -0.754922     2.320544
 C     3.346634    -3.214946     0.170367
 H     3.918658    -3.922248    -0.431453
 C     2.202675    -2.682893     2.242870
 H     1.872690    -2.983654     3.238278
 C     2.941301    -3.566724     1.458304
Cl     3.341730    -5.130271     2.080653
 C     4.367799     0.836986    -0.696796
 C     5.026272     0.801837     0.527723
 H     4.494543     1.104963     1.430025
 C     5.008498     0.478551    -1.892564
 C     4.261156     0.537913    -3.188722
 H     4.891724     0.209834    -4.025721
 H     3.356222    -0.090637    -3.163603
 H     3.904886     1.559144    -3.393715
 C     6.354969     0.385884     0.578865
 H     6.872865     0.354424     1.540020
 C     6.342000     0.068932    -1.811571
 H     6.860606    -0.216634    -2.730847
 C     7.013857     0.015876    -0.590757
 H     8.055150    -0.312017    -0.555959
 C     2.044361     2.240519     1.743148
 C     2.615568     1.814401     2.941055
 H     2.456412     0.788238     3.272877
 C     2.207023     3.555249     1.278544
 C     1.547247     4.002431     0.012088
 H     1.996154     3.506099    -0.862252
 H     0.479355     3.735769     0.008227
 H     1.643133     5.088599    -0.118309
 C     3.388658     2.696256     3.693924
 H     3.836946     2.359709     4.631397
 C     2.991978     4.415904     2.052108
 H     3.134477     5.443492     1.707191
 C     3.583922     3.999066     3.243148
 H     4.191374     4.697316     3.823101
