  84
scf done:    -2295.479024
 C     1.352942    -2.572890    -1.572021
 H     1.757413    -2.352081    -2.565408
 H     2.108704    -2.928513    -0.864999
 C    -0.002385    -3.034110    -1.456567
 H    -0.608223    -3.153223    -2.360130
 H    -0.258429    -3.746403    -0.666968
 H     0.512756    -1.727340     0.676807
Ir     0.131900    -1.000060    -0.738266
 C     3.358656    -0.270888     0.098446
 O     1.948535     1.929627    -0.558252
 O     1.460838     0.785693     1.711023
 C    -2.438238     1.298697     0.134318
 O    -3.099940    -1.170932    -0.731591
 O    -2.291517    -0.851734     1.693087
 P    -1.911334    -0.457170     0.151813
 P     1.679621     0.453417     0.111571
 C    -0.298548    -0.273155    -2.462337
 O    -0.569347     0.121752    -3.507128
 C     3.686218    -1.086274     1.191571
 H     2.981877    -1.169137     2.021871
 C     4.219607    -0.231482    -1.018278
 C     3.883392     0.511895    -2.275471
 H     3.829824     1.594569    -2.103104
 H     2.896199     0.200308    -2.652663
 H     4.628739     0.310182    -3.056678
 C     4.873841    -1.808276     1.228936
 H     5.107527    -2.431426     2.095181
 C     5.413358    -0.961406    -0.956550
 H     6.088021    -0.928861    -1.816431
 C     5.751443    -1.733262     0.150630
 H     6.690641    -2.291481     0.160790
 C     0.886550     2.649222    -1.209895
 H    -0.019394     2.019720    -1.179678
 C     1.273021     2.899587    -2.652364
 H     1.436713     1.959580    -3.194238
 H     2.192902     3.502508    -2.708229
 H     0.468607     3.447971    -3.164506
 C     0.607202     3.933552    -0.458896
 H     0.282554     3.727698     0.568249
 H     1.503367     4.573166    -0.430461
 H    -0.201665     4.485696    -0.958591
 C     2.399305     1.452779     2.570559
 H     3.420683     1.207544     2.232589
 C     2.187080     0.892346     3.962226
 H     2.337907    -0.196447     3.980474
 H     1.162608     1.099935     4.306977
 H     2.891939     1.350658     4.671608
 C     2.220554     2.956152     2.517121
 H     2.433339     3.335824     1.511260
 H     1.191922     3.235596     2.791709
 H     2.909951     3.439370     3.225834
 C    -2.892671     1.749867    -1.114432
 H    -2.975786     1.035252    -1.936656
 C    -2.285937     2.218242     1.194489
 C    -1.723151     1.847815     2.535371
 H    -0.751959     1.343550     2.426194
 H    -2.386372     1.155838     3.070937
 H    -1.580911     2.748266     3.149787
 C    -3.238552     3.080467    -1.324920
 H    -3.592724     3.404987    -2.306003
 C    -2.659050     3.549402     0.963002
 H    -2.558429     4.266770     1.782204
 C    -3.133654     3.984212    -0.270609
 H    -3.408904     5.032497    -0.410042
 C    -4.446611    -1.354475    -0.273298
 H    -4.499684    -1.056716     0.787765
 C    -4.753439    -2.834355    -0.396231
 H    -4.020892    -3.430832     0.165635
 H    -4.700908    -3.145184    -1.450793
 H    -5.760295    -3.060287    -0.013706
 C    -5.400027    -0.499726    -1.085438
 H    -5.214991     0.571078    -0.928656
 H    -5.290136    -0.721455    -2.158351
 H    -6.439615    -0.714112    -0.794366
 C    -1.750613    -2.010390     2.347084
 H    -1.307807    -2.666986     1.577725
 C    -2.895641    -2.722490     3.036553
 H    -3.663637    -3.035006     2.315689
 H    -3.367614    -2.059690     3.778166
 H    -2.528254    -3.618343     3.558939
 C    -0.662173    -1.575646     3.305820
 H     0.117707    -1.017147     2.770655
 H    -1.077361    -0.930663     4.095851
 H    -0.201941    -2.454064     3.783426
