 100
scf done:    -2904.588380
 C    -0.488139    -3.144373    -1.265183
 H    -1.128909    -3.817935    -0.686902
 H    -0.852880    -2.980728    -2.284069
 C     0.921778    -3.143378    -1.006512
 H     1.317783    -3.815794    -0.239266
 H     1.625950    -2.960942    -1.823413
 H     0.372926    -0.806310    -1.764205
Ir     0.060445    -1.322154    -0.245656
 C    -1.800064     1.408642    -1.619664
 C    -3.401084    -0.851053    -0.873188
 C    -2.450686     0.842166     1.147893
 C     2.122712     0.705928     1.951903
 C     3.460045    -1.151899     0.190444
 C     2.458757     1.338840    -0.803206
 P     1.979377    -0.062386     0.271390
 P    -1.862911     0.031964    -0.394576
 C    -0.223471    -2.046539     1.501555
 O    -0.348686    -2.532449     2.537546
 C    -1.773168     2.733842    -1.164744
 H    -1.886814     2.934560    -0.098951
 C    -1.675618     1.151832    -3.006213
 C    -1.748531    -0.225510    -3.597564
 H    -2.792775    -0.506999    -3.808484
 H    -1.337869    -0.983365    -2.917810
 H    -1.191020    -0.270268    -4.544007
 C    -1.599468     3.800936    -2.041089
 H    -1.569982     4.822196    -1.654681
 C    -1.506591     2.242639    -3.868277
 H    -1.405745     2.047035    -4.939687
 C    -1.461295     3.553683    -3.402909
 H    -1.318472     4.378778    -4.104881
 C    -4.407840    -0.265084    -1.655285
 H    -4.264314     0.739021    -2.063894
 C    -3.619906    -2.133840    -0.370443
 H    -2.843217    -2.603109     0.236936
 C    -5.584471    -0.945508    -1.931334
 H    -6.368290    -0.499922    -2.546895
 C    -4.800691    -2.826662    -0.630030
 H    -4.931797    -3.827336    -0.217845
 C    -5.792657    -2.234190    -1.419932
 O    -6.962716    -2.820711    -1.739505
 C    -7.224193    -4.109745    -1.260099
 H    -7.238332    -4.143099    -0.156301
 H    -8.216400    -4.390284    -1.635774
 H    -6.483820    -4.842646    -1.626599
 C    -1.661996     0.808771     2.303740
 H    -0.685044     0.324770     2.270409
 C    -3.698129     1.471960     1.221555
 H    -4.348612     1.499808     0.344458
 C    -2.089668     1.394290     3.485750
 H    -1.467149     1.370379     4.381918
 C    -4.142217     2.068186     2.398432
 H    -5.120604     2.548902     2.414577
 C    -3.334122     2.032971     3.543944
 O    -3.673935     2.578064     4.727375
 C    -4.912640     3.218968     4.847570
 H    -5.753065     2.529000     4.655005
 H    -4.981084     3.580321     5.881503
 H    -4.998357     4.081103     4.162569
 C     2.847856     0.057860     2.960868
 H     3.403118    -0.850814     2.727270
 C     1.434794     1.902547     2.262836
 C     0.662786     2.688259     1.247220
 H     0.199104     2.037080     0.496361
 H     1.316861     3.382410     0.696194
 H    -0.130196     3.272308     1.734391
 C     2.889255     0.553519     4.260850
 H     3.461818     0.022727     5.025015
 C     1.489774     2.381512     3.577354
 H     0.947810     3.300571     3.817331
 C     2.201749     1.721915     4.574166
 H     2.219610     2.121786     5.590897
 C     4.595518    -0.853847    -0.575709
 H     4.640196     0.074633    -1.146819
 C     3.438605    -2.372625     0.874288
 H     2.550258    -2.653845     1.444244
 C     5.669420    -1.731374    -0.638114
 H     6.549565    -1.504633    -1.242813
 C     4.516250    -3.253274     0.839102
 H     4.455320    -4.189526     1.394236
 C     5.646194    -2.935377     0.075182
 O     6.734135    -3.722087    -0.037823
 C     6.756444    -4.944563     0.643378
 H     5.944341    -5.615390     0.311490
 H     7.720699    -5.415655     0.413942
 H     6.678057    -4.808174     1.736635
 C     1.783383     1.603177    -2.000051
 H     0.966564     0.946375    -2.304001
 C     3.485260     2.206057    -0.414409
 H     4.014806     2.032965     0.526528
 C     2.118001     2.697935    -2.781602
 H     1.577638     2.916012    -3.704013
 C     3.837659     3.306744    -1.192194
 H     4.641014     3.962026    -0.854831
 C     3.148250     3.560521    -2.386104
 O     3.402656     4.602150    -3.201026
 C     4.417479     5.501331    -2.853571
 H     5.402674     5.006163    -2.791527
 H     4.451917     6.259322    -3.646395
 H     4.211871     6.001866    -1.890744
