  84
scf done:    -2295.491042
 C     1.650601    -2.410813    -1.644868
 H     1.932008    -2.127805    -2.664418
 H     2.509916    -2.568085    -0.985810
 C     0.453189    -3.176125    -1.438227
 H    -0.145417    -3.461615    -2.310032
 H     0.421782    -3.912452    -0.630131
 H     0.722537    -1.745484     0.676172
Ir     0.157853    -1.144464    -0.738914
 C     3.223966     0.221715     0.168906
 O     1.624143     1.991040    -0.923883
 O     1.058575     1.188904     1.437446
 C    -2.649209     0.797390     0.085906
 O    -3.053746    -1.777808     0.258577
 O    -1.526621    -0.701200     2.044426
 P    -1.771198    -0.761160     0.434456
 P     1.456564     0.609125    -0.046383
 C    -0.626077    -0.618689    -2.414295
 O    -1.145713    -0.363574    -3.406951
 C     3.584580    -0.792525     1.066747
 H     2.806186    -1.315428     1.629113
 C     4.225393     0.863502    -0.561929
 H     3.950357     1.657379    -1.258212
 C     4.918182    -1.143477     1.232309
 H     5.182065    -1.935185     1.939391
 C     5.560975     0.500061    -0.394224
 H     6.333804     1.013639    -0.973131
 C     5.932051    -0.505828     0.502136
 C     7.366170    -0.914036     0.668868
 H     7.547894    -1.905197     0.221630
 H     8.048283    -0.200860     0.185282
 H     7.642046    -0.985022     1.732184
 C     0.766317     2.332471    -2.015844
 H    -0.198192     1.814914    -1.874740
 C     1.406304     1.872146    -3.310138
 H     1.621019     0.794400    -3.267985
 H     2.353233     2.407584    -3.482094
 H     0.738314     2.056321    -4.164320
 C     0.530647     3.826644    -1.966182
 H     0.036246     4.111436    -1.027248
 H     1.484665     4.370943    -2.040064
 H    -0.115276     4.138194    -2.800300
 C     1.851755     2.171054     2.116964
 H     2.795189     2.314816     1.561487
 C     2.166801     1.634920     3.497505
 H     2.745819     0.703697     3.424662
 H     1.235678     1.421215     4.043310
 H     2.753635     2.365991     4.073778
 C     1.093602     3.483717     2.140237
 H     0.886631     3.820626     1.115350
 H     0.138217     3.371109     2.676297
 H     1.682481     4.261812     2.648970
 C    -3.869572     0.840201    -0.589148
 H    -4.365486    -0.095002    -0.854883
 C    -2.020697     2.001483     0.435040
 H    -1.058977     1.971858     0.953723
 C    -4.449115     2.067112    -0.912322
 H    -5.403977     2.086057    -1.445143
 C    -2.613581     3.217567     0.122083
 H    -2.117933     4.148288     0.414310
 C    -3.835858     3.273871    -0.564524
 C    -4.451131     4.595661    -0.918850
 H    -4.557570     5.237731    -0.030455
 H    -3.822110     5.144188    -1.638723
 H    -5.445476     4.471172    -1.369610
 C    -2.882390    -3.122157    -0.205955
 H    -2.142616    -3.097946    -1.024727
 C    -4.225216    -3.571092    -0.738748
 H    -4.565047    -2.904363    -1.544698
 H    -4.982777    -3.562294     0.060323
 H    -4.156823    -4.592858    -1.140656
 C    -2.342871    -4.007446     0.899730
 H    -1.384142    -3.615503     1.270495
 H    -3.048203    -4.062928     1.742922
 H    -2.173204    -5.027088     0.522094
 C    -2.524746    -0.278972     2.979378
 H    -3.290776     0.309033     2.442180
 C    -1.834417     0.616769     3.986123
 H    -1.382810     1.481484     3.480573
 H    -1.032730     0.063234     4.498463
 H    -2.549430     0.980069     4.739227
 C    -3.183734    -1.492083     3.604481
 H    -3.703782    -2.078915     2.836086
 H    -2.428370    -2.132406     4.085388
 H    -3.916613    -1.183654     4.365398
