  96
scf done:    -2603.930989
 C     0.468354    -3.316798    -1.307246
 H     1.140214    -3.461046    -2.160872
 H     0.756612    -3.907058    -0.431132
 C    -0.929912    -3.092046    -1.565558
 H    -1.275294    -3.056156    -2.604392
 H    -1.669400    -3.501283    -0.871990
 H    -0.384791    -1.916620     0.610052
Ir    -0.028890    -1.274751    -0.846228
 C     1.001169     0.233739     2.061618
 C     3.181878    -1.306726     0.751433
 C     2.411315     1.261856    -0.287487
 C    -1.594130     1.946033    -0.312555
 C    -3.150405     0.062405    -1.757652
 C    -2.818030    -0.373231     1.125361
 P    -1.867529     0.107602    -0.396374
 P     1.662396    -0.274957     0.415926
 C     0.479466    -0.633789    -2.575445
 O     0.827753    -0.262195    -3.609514
 C     0.532087     1.550064     2.192929
 H     0.673611     2.265347     1.382686
 C     0.791155    -0.674579     3.124788
 C     1.215965    -2.113677     3.070942
 H     2.305476    -2.222909     3.176005
 H     0.918030    -2.576237     2.116922
 H     0.750018    -2.683878     3.886464
 C    -0.125734     1.981743     3.340426
 H    -0.477533     3.013977     3.402707
 C     0.132652    -0.215536     4.273502
 H    -0.029168    -0.918303     5.095676
 C    -0.326837     1.092866     4.392115
 H    -0.839931     1.413029     5.301893
 H     2.820290    -2.329931     0.919035
 H     3.665179    -0.951921     1.673125
 C     4.159930    -1.280667    -0.389548
 C     5.436365    -0.733284    -0.219517
 H     5.717490    -0.315380     0.750685
 C     3.813203    -1.794528    -1.646501
 H     2.819784    -2.225025    -1.784831
 C     6.343019    -0.695289    -1.276682
 H     7.333416    -0.260569    -1.121713
 C     4.714283    -1.745409    -2.707222
 H     4.421783    -2.143860    -3.681776
 C     5.983406    -1.195457    -2.526599
 H     6.691441    -1.160393    -3.358221
 H     1.596580     2.000202    -0.343498
 H     2.617185     0.987654    -1.333786
 C     3.649866     1.864829     0.318890
 C     3.885202     1.924896     1.697721
 H     3.148944     1.521195     2.394132
 C     4.620868     2.397507    -0.539619
 H     4.464155     2.339622    -1.620035
 C     5.059726     2.486660     2.197996
 H     5.223977     2.515336     3.278056
 C     5.790099     2.965355    -0.043530
 H     6.534331     3.365206    -0.736609
 C     6.017972     3.008198     1.331570
 H     6.938456     3.445669     1.725391
 C    -0.669468     2.372785    -1.278528
 H    -0.201915     1.622662    -1.918525
 C    -2.210781     2.921887     0.505736
 C    -3.287565     2.648120     1.515407
 H    -2.937129     2.008796     2.337198
 H    -4.157553     2.163889     1.048801
 H    -3.636120     3.591782     1.955672
 C    -0.318009     3.708585    -1.441379
 H     0.404864     3.993367    -2.209166
 C    -1.813806     4.258799     0.350571
 H    -2.276089     5.010875     0.995539
 C    -0.882429     4.661632    -0.600062
 H    -0.609363     5.715817    -0.687541
 H    -3.461318    -0.989265    -1.840936
 H    -2.581865     0.294370    -2.670834
 C    -4.303070     1.000775    -1.578893
 C    -4.203713     2.332975    -2.006669
 H    -3.297503     2.664246    -2.518972
 C    -5.482838     0.603316    -0.933756
 H    -5.601115    -0.433057    -0.610069
 C    -5.233792     3.239886    -1.774206
 H    -5.128093     4.273585    -2.111944
 C    -6.516983     1.508580    -0.701248
 H    -7.426256     1.172761    -0.196919
 C    -6.392759     2.834173    -1.113131
 H    -7.200642     3.546202    -0.929083
 H    -3.791263     0.134249     1.109458
 H    -2.233784     0.033304     1.963926
 C    -3.002287    -1.851365     1.314605
 C    -2.263949    -2.525867     2.293434
 H    -1.567414    -1.955080     2.909818
 C    -3.906757    -2.593748     0.546663
 H    -4.505936    -2.099523    -0.219341
 C    -2.403512    -3.897601     2.484139
 H    -1.808881    -4.400721     3.250716
 C    -4.053559    -3.966721     0.735151
 H    -4.762324    -4.524009     0.118062
 C    -3.296856    -4.626868     1.700881
 H    -3.406435    -5.704101     1.845526
