 108
scf done:    -2461.272152
 C    -0.749909    -0.039003    -3.399119
 H    -1.361478    -0.876691    -3.753519
 H    -1.201524     0.934320    -3.621681
 C     0.688143    -0.158747    -3.443156
 H     1.131237    -1.083600    -3.830025
 H     1.277496     0.728826    -3.692052
 H     0.193864     1.384626    -1.499938
Ir     0.015428    -0.234464    -1.403114
 C    -1.842807     1.895078     0.795777
 C    -3.395670     0.200025    -1.013099
 C    -2.111746    -0.922203     1.464762
 C     1.941450    -1.556857     1.220516
 C     3.450914    -0.392075    -0.954187
 C     2.115664     1.428160     1.030350
 P     1.878188    -0.127499     0.035298
 P    -1.828934     0.216345     0.006356
 C    -0.105114    -2.137044    -1.520250
 O    -0.142530    -3.271636    -1.715453
 C    -1.707351     2.016352     2.188446
 H    -1.651262     1.125235     2.812036
 C    -1.918257     3.085855     0.029209
 C    -2.071347     3.108702    -1.463605
 H    -3.125069     2.979475    -1.758854
 H    -1.482947     2.311334    -1.938520
 H    -1.736458     4.073884    -1.868023
 C    -1.656422     3.251342     2.828488
 H    -1.554428     3.294060     3.915365
 C    -1.861720     4.318139     0.693924
 H    -1.915721     5.230578     0.093779
 C    -1.738333     4.416600     2.075194
 H    -1.698139     5.396919     2.555483
 H    -3.054629     0.738496    -1.912284
 C    -4.631982     0.930788    -0.486241
 H    -4.370815     1.939025    -0.130009
 H    -5.049851     0.399097     0.381724
 C    -5.697155     1.006890    -1.577790
 H    -6.593707     1.522482    -1.196543
 H    -5.316530     1.622710    -2.413449
 C    -6.061158    -0.379178    -2.099851
 H    -6.802746    -0.302536    -2.911612
 H    -6.548065    -0.951014    -1.288663
 C    -4.828434    -1.140965    -2.575209
 H    -4.406095    -0.638267    -3.463781
 H    -5.104723    -2.158481    -2.896241
 C    -3.755099    -1.207402    -1.492656
 H    -4.131483    -1.809443    -0.647932
 H    -2.855655    -1.714760    -1.873595
 H    -1.348136    -0.582206     2.184172
 C    -1.756633    -2.384326     1.185523
 H    -0.731193    -2.442408     0.799318
 H    -2.415729    -2.800068     0.406076
 C    -1.862253    -3.228485     2.452577
 H    -1.638537    -4.280256     2.212535
 H    -1.076064    -2.905470     3.156719
 C    -3.220180    -3.102230     3.129358
 H    -3.244470    -3.693727     4.059122
 H    -4.001384    -3.524821     2.471399
 C    -3.547524    -1.642111     3.413287
 H    -2.826479    -1.240718     4.149510
 H    -4.545015    -1.546715     3.872501
 C    -3.482233    -0.810223     2.136409
 H    -4.250598    -1.183315     1.440248
 H    -3.735511     0.240089     2.345652
 C     2.243845    -2.773940     0.580633
 H     2.447703    -2.775759    -0.491589
 C     1.615905    -1.596162     2.596841
 C     1.184434    -0.417691     3.425818
 H     0.384594     0.159837     2.944859
 H     2.009177     0.280074     3.629413
 H     0.801950    -0.762819     4.396096
 C     2.271224    -3.988811     1.251154
 H     2.505556    -4.905062     0.704979
 C     1.666287    -2.834302     3.258605
 H     1.422423    -2.857107     4.324354
 C     1.991744    -4.019851     2.614048
 H     2.009863    -4.960571     3.168831
 H     3.125894    -1.196509    -1.638659
 C     4.724566    -0.867772    -0.251379
 H     4.519135    -1.720470     0.411725
 H     5.124439    -0.065887     0.388360
 C     5.779176    -1.250190    -1.288101
 H     6.701248    -1.581760    -0.783155
 H     5.414435    -2.117764    -1.867740
 C     6.080531    -0.098012    -2.241029
 H     6.805875    -0.413137    -3.008837
 H     6.564893     0.718196    -1.674268
 C     4.810569     0.438368    -2.893139
 H     4.387449    -0.327985    -3.567209
 H     5.042074     1.312257    -3.523785
 C     3.762588     0.809409    -1.848816
 H     4.153962     1.634697    -1.229862
 H     2.842074     1.173198    -2.327544
 H     1.294057     1.368283     1.759332
 C     1.863667     2.729398     0.261718
 H     0.903794     2.665048    -0.267396
 H     2.637891     2.877298    -0.507513
 C     1.863322     3.916114     1.219857
 H     1.692838     4.848152     0.656896
 H     1.007221     3.814339     1.908534
 C     3.155090     4.005247     2.023216
 H     3.111351     4.845494     2.735360
 H     3.996464     4.221124     1.339512
 C     3.437084     2.699816     2.757633
 H     2.661517     2.542090     3.529713
 H     4.400258     2.753723     3.291082
 C     3.438596     1.515745     1.794628
 H     4.258118     1.656111     1.070883
 H     3.658263     0.575687     2.325259
