  90
scf done:    -3444.313864
 C     0.524794    -3.854404    -1.408175
 H     0.913961    -4.008666    -2.419900
 H     1.145711    -4.307923    -0.628943
 C    -0.897722    -3.795742    -1.207779
 H    -1.559305    -3.904685    -2.073675
 H    -1.326663    -4.186257    -0.280921
 H     0.116587    -2.326621     0.593430
Ir    -0.060341    -1.826869    -0.960044
 C     1.680134     0.377226     1.112141
 C     3.092610    -2.025127     0.438646
 C     3.133802     0.103615    -1.421041
 C    -1.358528     1.348339     0.088356
 C    -3.237162    -0.336966    -1.209947
 C    -2.424262    -0.896694     1.542995
 P    -1.724987    -0.437170    -0.113051
 P     1.924666    -0.769007    -0.299778
 C    -0.441884    -1.382399    -2.774823
 O    -0.779036    -1.162756    -3.855533
 C     1.937972     1.748283     1.043982
 H     2.363825     2.183980     0.142524
 C     1.107279    -0.131600     2.286489
 H     0.880093    -1.198073     2.355316
 C     1.613890     2.597137     2.099651
 H     1.780633     3.672382     2.019322
 C     0.795157     0.697976     3.357093
 H     0.346255     0.296211     4.267354
 C     1.036748     2.067675     3.248934
Cl     0.567848     3.124720     4.538188
 H     3.180729    -2.810135    -0.327543
 H     2.536097    -2.473218     1.275028
 C     4.436304    -1.514890     0.859036
 C     4.606115    -0.804468     2.055881
 H     3.750924    -0.649410     2.716611
 C     5.555818    -1.706737     0.038499
 H     5.446475    -2.271620    -0.891743
 C     5.851373    -0.290872     2.410015
 H     5.960719     0.259763     3.347504
 C     6.802497    -1.194434     0.390838
 H     7.661235    -1.358473    -0.264667
 C     6.953990    -0.479398     1.577573
 H     7.930303    -0.076462     1.856910
 H     3.582552    -0.732696    -1.982078
 H     3.932326     0.517222    -0.786879
 C     2.620856     1.129729    -2.385705
 C     2.941203     2.486099    -2.248965
 H     3.595727     2.807502    -1.433939
 C     1.839210     0.744013    -3.480551
 H     1.629539    -0.314059    -3.635702
 C     2.457639     3.432449    -3.151004
 H     2.722782     4.484969    -3.024209
 C     1.337414     1.686354    -4.374053
 H     0.713886     1.356271    -5.208162
 C     1.638303     3.038409    -4.207919
 H     1.250535     3.779946    -4.910294
 C    -0.678568     1.979299    -0.961408
 H    -0.337349     1.393660    -1.819388
 C    -1.753277     2.114609     1.188586
 H    -2.293452     1.662093     2.021049
 C    -0.405822     3.341604    -0.923422
 H     0.131771     3.821021    -1.741693
 C    -1.461990     3.475051     1.254568
 H    -1.740520     4.062850     2.130278
 C    -0.788531     4.078104     0.196513
Cl    -0.375308     5.759499     0.292771
 H    -3.630391    -1.363228    -1.265859
 H    -2.840439    -0.099069    -2.208447
 C    -4.272792     0.659837    -0.791009
 C    -4.170159     1.998525    -1.196324
 H    -3.351267     2.297070    -1.854726
 C    -5.338713     0.306196     0.046892
 H    -5.461676    -0.733504     0.359051
 C    -5.087025     2.951941    -0.764305
 H    -4.981406     3.989036    -1.091397
 C    -6.259347     1.258658     0.481632
 H    -7.083198     0.956451     1.132700
 C    -6.133357     2.587357     0.082394
 H    -6.852836     3.335443     0.423327
 H    -3.365542    -0.341234     1.682958
 H    -1.699524    -0.514313     2.276306
 C    -2.621490    -2.370749     1.737454
 C    -1.707757    -3.110424     2.497053
 H    -0.868793    -2.595954     2.971040
 C    -3.695431    -3.053686     1.154224
 H    -4.429939    -2.505407     0.561976
 C    -1.849876    -4.486320     2.656957
 H    -1.119924    -5.040844     3.251385
 C    -3.844360    -4.429743     1.312143
 H    -4.689367    -4.939406     0.843332
 C    -2.918449    -5.153701     2.060487
 H    -3.030527    -6.233540     2.180987
