 100
scf done:    -2904.727725
 C    -0.627291     0.042839    -3.783053
 H    -1.462891    -0.576835    -4.124813
 H    -0.739672     1.100188    -4.037382
 C     0.683582    -0.530091    -3.728371
 H     0.817163    -1.581504    -4.000830
 H     1.551872     0.089090    -3.967819
 H     0.549849     1.269584    -1.839422
Ir    -0.056025    -0.244188    -1.710627
 C    -1.418869     2.469929     0.150256
 O    -3.214983     1.003423    -0.951262
 O    -1.903117    -0.126343     0.964275
 C     1.578711    -2.267332     0.614403
 O     3.228733    -0.898592    -0.836763
 O     1.912355     0.435696     0.902470
 P     1.675924    -0.699718    -0.294160
 P    -1.657244     0.764545    -0.424506
 C    -0.771235    -2.038207    -1.606247
 O    -1.184818    -3.103175    -1.539225
 C    -0.215689     2.771200     0.799160
 H     0.545913     1.997228     0.915005
 C    -2.386314     3.467704     0.003954
 H    -3.325962     3.237383    -0.497542
 C     0.001049     4.044879     1.310513
 H     0.941210     4.259807     1.826189
 C    -2.151288     4.744100     0.508756
 H    -2.916394     5.516144     0.388574
 C    -0.959792     5.056116     1.172356
 C    -0.700227     6.437481     1.695860
 H    -0.054046     7.002033     1.003080
 H    -1.632444     7.007286     1.815619
 H    -0.185070     6.408870     2.667496
 C    -4.144283     0.055224    -1.293386
 C    -3.858617    -0.954147    -2.209172
 H    -2.874763    -0.974813    -2.673793
 C    -5.416648     0.174983    -0.708750
 C    -5.737495     1.314789     0.206978
 H    -5.004385     1.401853     1.021088
 H    -5.724935     2.271538    -0.340057
 H    -6.734165     1.190254     0.650702
 C    -4.826139    -1.909128    -2.514426
 H    -4.590610    -2.706979    -3.222151
 C    -6.367104    -0.796000    -1.035901
 H    -7.359107    -0.726679    -0.581305
 C    -6.081451    -1.838253    -1.917151
 H    -6.844819    -2.585398    -2.145058
 C    -2.884004     0.034547     1.913610
 C    -2.948077     1.182890     2.701986
 H    -2.219574     1.979189     2.552017
 C    -3.769884    -1.039701     2.102744
 C    -3.647534    -2.289852     1.287359
 H    -3.860697    -2.102160     0.224346
 H    -2.628514    -2.702091     1.332297
 H    -4.349718    -3.055827     1.642530
 C    -3.943288     1.297894     3.670911
 H    -3.997736     2.201311     4.282466
 C    -4.755155    -0.893702     3.083568
 H    -5.459475    -1.714979     3.241394
 C    -4.855338     0.262257     3.856405
 H    -5.639296     0.346721     4.612292
 C     2.569263    -3.249990     0.575178
 H     3.461416    -3.090121    -0.030585
 C     0.436448    -2.470116     1.400878
 H    -0.346123    -1.705817     1.429159
 C     2.418277    -4.418074     1.318933
 H     3.199844    -5.181967     1.281280
 C     0.304964    -3.632907     2.149474
 H    -0.584709    -3.773099     2.770049
 C     1.290572    -4.630153     2.119141
 C     1.119572    -5.899292     2.899845
 H     0.676419    -5.706991     3.888202
 H     0.444829    -6.593384     2.371558
 H     2.077822    -6.417440     3.045583
 C     4.070586     0.046835    -1.365365
 C     3.636037     1.029406    -2.250777
 H     2.578408     1.083003    -2.506715
 C     5.416504    -0.043509    -0.972440
 C     5.852427    -1.097850    -0.003757
 H     5.255993    -1.056349     0.920568
 H     5.720070    -2.106408    -0.427281
 H     6.911386    -0.974239     0.259623
 C     4.551387     1.941923    -2.771776
 H     4.205461     2.712183    -3.464815
 C     6.309788     0.886632    -1.509334
 H     7.360518     0.832761    -1.211534
 C     5.891935     1.872849    -2.403273
 H     6.614103     2.585879    -2.807095
 C     2.983212     0.479096     1.770699
 C     3.143479    -0.507672     2.746928
 H     2.417938    -1.317025     2.813900
 C     3.862078     1.570020     1.685565
 C     3.670786     2.679407     0.696082
 H     4.510381     2.718781    -0.014633
 H     2.749299     2.556306     0.116409
 H     3.629574     3.651000     1.213224
 C     4.221387    -0.447344     3.624417
 H     4.344753    -1.225473     4.380960
 C     4.936949     1.601174     2.582926
 H     5.637464     2.438995     2.524404
 C     5.130077     0.605931     3.535572
 H     5.981731     0.659481     4.217493
