  90
scf done:    -3444.291140
 C     1.111743    -1.988009    -2.796813
 H     1.390889    -1.446791    -3.707128
 H     1.940143    -2.555393    -2.361597
 C    -0.225675    -2.495104    -2.678785
 H    -0.943582    -2.314880    -3.485841
 H    -0.379696    -3.448590    -2.168261
 H     0.550514    -2.017093    -0.340862
Ir     0.027503    -0.832194    -1.332582
 C     2.854965    -0.789624     0.608069
 C     2.964398     1.259934    -1.375978
 C     1.382619     1.740639     0.953768
 C    -2.196883     1.110573     0.586358
 C    -3.434100    -1.064604    -0.962465
 C    -2.119639    -1.587303     1.541738
 P    -1.916199    -0.608868    -0.010123
 P     1.756830     0.402527    -0.267470
 C    -0.621976     0.404795    -2.638783
 O    -1.035756     1.088826    -3.467620
 C     2.411329    -1.487102     1.740799
 H     1.428189    -1.278761     2.162795
 C     4.096512    -1.139853     0.065070
 H     4.461609    -0.633888    -0.830615
 C     3.190621    -2.470946     2.337484
 H     2.837995    -3.000408     3.224221
 C     4.882791    -2.133753     0.643638
 H     5.848400    -2.400156     0.210927
 C     4.429931    -2.791070     1.783908
Cl     5.404115    -4.021045     2.515462
 C     2.769810     1.112196    -2.752836
 H     1.939442     0.491140    -3.088865
 C     4.042661     2.049974    -0.907103
 C     4.354044     2.284083     0.543317
 H     4.218027     1.381673     1.152645
 H     3.698857     3.058624     0.971864
 H     5.393611     2.621749     0.657471
 C     3.599379     1.733431    -3.681240
 H     3.418139     1.601264    -4.750138
 C     4.866174     2.662936    -1.860534
 H     5.702835     3.272748    -1.508633
 C     4.654052     2.519111    -3.228969
 H     5.318982     3.017930    -3.938322
 C     1.558516     1.551225     2.330278
 H     1.946979     0.605614     2.704782
 C     0.918283     2.993533     0.489281
 C     0.725704     3.316527    -0.962568
 H     0.321908     2.464940    -1.524227
 H     1.678707     3.590468    -1.441579
 H     0.034346     4.162056    -1.077690
 C     1.297298     2.565539     3.246232
 H     1.453373     2.384950     4.312376
 C     0.670245     4.000750     1.429091
 H     0.304660     4.967137     1.072610
 C     0.854606     3.803799     2.792877
 H     0.640122     4.613447     3.494259
 C    -2.366171     2.164261    -0.323124
 H    -2.345975     1.978163    -1.397714
 C    -2.142211     1.420460     1.951511
 H    -1.974077     0.629394     2.684168
 C    -2.547626     3.472156     0.114167
 H    -2.691350     4.283260    -0.601376
 C    -2.297093     2.727123     2.400800
 H    -2.238902     2.959201     3.464773
 C    -2.513446     3.746386     1.478628
Cl    -2.674729     5.380983     2.030162
 C    -4.319255    -0.092966    -1.444425
 H    -4.171242     0.954838    -1.186272
 C    -3.678489    -2.425714    -1.260329
 C    -2.841930    -3.549026    -0.722847
 H    -3.165362    -3.828114     0.292945
 H    -1.781393    -3.274930    -0.660762
 H    -2.934306    -4.438255    -1.361948
 C    -5.416719    -0.432135    -2.229678
 H    -6.087378     0.351103    -2.590312
 C    -4.787651    -2.742170    -2.054155
 H    -4.973975    -3.793913    -2.288617
 C    -5.650373    -1.766938    -2.543796
 H    -6.503898    -2.051271    -3.163686
 C    -1.021332    -2.338605     1.968159
 H    -0.129823    -2.333088     1.338730
 C    -3.322054    -1.628469     2.288925
 C    -4.585861    -0.919964     1.895500
 H    -5.105847    -1.464827     1.091941
 H    -4.403419     0.094792     1.520304
 H    -5.268190    -0.851599     2.754097
 C    -1.063020    -3.108946     3.125912
 H    -0.187828    -3.689043     3.428151
 C    -3.339647    -2.407168     3.454042
 H    -4.260910    -2.440016     4.042036
 C    -2.232799    -3.137515     3.878105
 H    -2.291685    -3.733678     4.792000
