  84
scf done:    -2843.562719
 C    -0.543137    -3.100589    -1.339893
 H    -1.118972    -3.814257    -0.742107
 H    -0.994958    -2.899310    -2.316116
 C     0.882389    -3.077716    -1.200936
 H     1.355476    -3.774408    -0.502165
 H     1.509522    -2.841128    -2.065218
 H     0.224192    -0.720460    -1.796307
Ir     0.052245    -1.312787    -0.283641
 C    -1.975081     1.426405    -1.368909
 C    -3.460333    -0.906605    -0.583541
 C    -2.378384     0.722755     1.414951
 C     2.251991     0.648998     1.839101
 C     3.467581    -1.078193    -0.136111
 C     2.334850     1.436716    -0.896529
 P     1.975455    -0.032396     0.139871
 P    -1.900831    -0.003672    -0.209645
 C    -0.066203    -2.130964     1.443182
 O    -0.091531    -2.669303     2.459319
 C    -1.932422     2.730960    -0.857757
 H    -1.955025     2.884917     0.221457
 C    -1.964562     1.232240    -2.770930
 C    -2.059936    -0.119001    -3.417394
 H    -3.111664    -0.391992    -3.600798
 H    -1.621138    -0.906474    -2.791701
 H    -1.541679    -0.121416    -4.386953
 C    -1.857763     3.838683    -1.696708
 H    -1.815984     4.842665    -1.268725
 C    -1.893870     2.363353    -3.594212
 H    -1.884504     2.217066    -4.678098
 C    -1.835889     3.653673    -3.075436
 H    -1.775575     4.511979    -3.748913
 C    -4.532779    -0.318116    -1.264174
 H    -4.440980     0.700407    -1.650653
 C    -3.603485    -2.211268    -0.098403
 H    -2.768060    -2.677428     0.427910
 C    -5.720222    -1.017300    -1.467011
 H    -6.561664    -0.574569    -2.003109
 C    -4.786803    -2.918391    -0.283538
 H    -4.910970    -3.936040     0.090782
 C    -5.830967    -2.310675    -0.971305
 F    -6.962402    -2.984100    -1.162445
 C    -1.499669     0.635184     2.496659
 H    -0.523919     0.168119     2.357371
 C    -3.626636     1.333562     1.610265
 H    -4.339275     1.400314     0.785442
 C    -1.837557     1.151218     3.745505
 H    -1.148641     1.088319     4.589544
 C    -3.978796     1.857706     2.847934
 H    -4.945874     2.335674     3.014022
 C    -3.074971     1.758703     3.902913
 F    -3.411226     2.257974     5.088888
 C     3.077587    -0.031020     2.744701
 H     3.632199    -0.910517     2.417427
 C     1.566283     1.808443     2.272327
 C     0.693193     2.627797     1.371092
 H     0.183586     2.008614     0.622804
 H     1.281811     3.373097     0.813127
 H    -0.069766     3.161279     1.954597
 C     3.220810     0.396978     4.061267
 H     3.870435    -0.156598     4.742950
 C     1.725617     2.219478     3.601273
 H     1.189382     3.111805     3.936180
 C     2.536761     1.528081     4.495478
 H     2.635812     1.875360     5.526635
 C     3.532871    -2.332003     0.491980
 H     2.710911    -2.658372     1.132653
 C     4.506600    -0.713823    -0.998750
 H     4.474063     0.241504    -1.524011
 C     4.617299    -3.179446     0.301913
 H     4.676381    -4.152052     0.793489
 C     5.590817    -1.562947    -1.217011
 H     6.400427    -1.288998    -1.895811
 C     5.637488    -2.781582    -0.556109
 F     6.672475    -3.593755    -0.754529
 C     3.377854     2.307036    -0.545122
 H     3.986601     2.098811     0.338789
 C     1.553761     1.734121    -2.014893
 H     0.728653     1.070196    -2.278357
 C     3.636614     3.447979    -1.296588
 H     4.441646     4.137109    -1.035156
 C     1.796513     2.876302    -2.773281
 H     1.177088     3.125295    -3.636076
 C     2.836205     3.718163    -2.403236
 F     3.072130     4.815679    -3.117374
