  94
scf done:    -3024.535356
 C    -0.751318     0.209252    -3.777558
 H    -1.241257    -0.663431    -4.220772
 H    -1.332500     1.131312    -3.872365
 C     0.684847     0.283713    -3.793432
 H     1.249088    -0.533346    -4.254340
 H     1.169853     1.258479    -3.895561
 H    -0.057156     1.531360    -1.698478
Ir     0.013251    -0.098257    -1.782556
 C    -2.378805     1.560898     0.180871
 O    -2.993901    -1.001175    -0.630984
 O    -1.212642    -0.665261     1.204759
 C     2.264993    -1.323687     0.625301
 O     3.096319     0.835155    -0.857355
 O     1.283843     1.186011     0.939031
 P     1.704685     0.147952    -0.286219
 P    -1.686644    -0.057109    -0.271070
 C     0.125760    -2.018257    -1.979457
 O     0.211377    -3.155138    -2.093893
 C    -1.763756     2.290845     1.205839
 H    -0.946636     1.840317     1.771660
 C    -3.376488     2.168825    -0.590974
 H    -3.848480     1.629742    -1.414113
 C    -2.157917     3.596457     1.480608
 H    -1.685846     4.181253     2.272055
 C    -3.784142     3.470259    -0.318635
 H    -4.569350     3.955903    -0.900219
 C    -3.170611     4.165665     0.717208
 F    -3.555993     5.411439     0.977418
 C    -4.347395    -0.775127    -0.562064
 C    -4.998868    -0.563565     0.648638
 H    -4.426549    -0.557671     1.575996
 C    -5.043423    -0.808351    -1.781016
 C    -4.298913    -1.037839    -3.059446
 H    -3.749020    -1.991227    -3.031289
 H    -4.982096    -1.049826    -3.919101
 H    -3.538423    -0.258477    -3.227349
 C    -6.377901    -0.363547     0.657176
 H    -6.889607    -0.194838     1.607276
 C    -6.425746    -0.609237    -1.740529
 H    -6.986916    -0.630547    -2.678713
 C    -7.093386    -0.383769    -0.537032
 H    -8.174516    -0.228289    -0.534395
 C    -2.004681    -1.245453     2.162901
 C    -2.523608    -0.472964     3.200911
 H    -2.324529     0.598742     3.217651
 C    -2.216565    -2.632429     2.098702
 C    -1.609176    -3.443883     0.997005
 H    -2.068925    -3.198709     0.027696
 H    -0.532830    -3.234926     0.902899
 H    -1.742288    -4.518365     1.180051
 C    -3.300964    -1.074887     4.188800
 H    -3.712488    -0.468877     4.999061
 C    -3.002331    -3.207288     3.102221
 H    -3.185464    -4.284614     3.069867
 C    -3.547830    -2.444506     4.133906
 H    -4.159302    -2.924675     4.901042
 C     3.086139    -2.272088     0.000789
 H     3.497203    -2.081989    -0.992790
 C     1.722496    -1.612224     1.883020
 H     1.035176    -0.904217     2.347168
 C     3.393964    -3.469644     0.636111
 H     4.041300    -4.213870     0.169678
 C     2.016605    -2.811575     2.524623
 H     1.594885    -3.054891     3.501412
 C     2.856226    -3.721572     1.893628
 F     3.144155    -4.868025     2.502248
 C     4.408894     0.459940    -0.700217
 C     5.052301     0.552741     0.529452
 H     4.503354     0.919792     1.396729
 C     5.075441     0.012717    -1.851773
 C     4.342871    -0.067271    -3.155002
 H     3.973349     0.923086    -3.462587
 H     4.988599    -0.464295    -3.949525
 H     3.447600    -0.704978    -3.076754
 C     6.390900     0.179548     0.631666
 H     6.896266     0.249617     1.597461
 C     6.417995    -0.351166    -1.719969
 H     6.955729    -0.703958    -2.604260
 C     7.075209    -0.275525    -0.492279
 H     8.124475    -0.569467    -0.416909
 C     2.109405     2.035381     1.633718
 C     2.620969     1.646987     2.870865
 H     2.394198     0.651113     3.252044
 C     2.357160     3.310854     1.101705
 C     1.757045     3.717563    -0.207692
 H     2.198377     3.144041    -1.037140
 H     0.675730     3.512109    -0.225994
 H     1.918696     4.786879    -0.398624
 C     3.423091     2.526535     3.595638
 H     3.826687     2.220305     4.563331
 C     3.168434     4.169919     1.849506
 H     3.378521     5.166801     1.452861
 C     3.704059     3.788774     3.078786
 H     4.334869     4.484149     3.636897
