  96
scf done:    -2603.944618
 C    -0.784270     0.227382    -3.627694
 H    -1.283849    -0.640295    -4.072019
 H    -1.370163     1.148455    -3.702913
 C     0.651110     0.289979    -3.674819
 H     1.192875    -0.525984    -4.165564
 H     1.144045     1.259467    -3.794344
 H    -0.085733     1.543330    -1.590671
Ir    -0.003918    -0.093235    -1.653336
 C    -1.595913     1.189509     1.249216
 C    -3.316820     0.811229    -1.008420
 C    -2.504297    -1.425421     0.556507
 C     1.684423    -0.989703     1.304424
 C     3.442389    -0.611180    -0.887433
 C     2.356649     1.680720     0.405771
 P     1.852897     0.026795    -0.212913
 P    -1.830588     0.098960    -0.208802
 C     0.028454    -1.999528    -1.816290
 O     0.039109    -3.144125    -1.925006
 C    -2.060036     0.856853     2.525175
 H    -2.637663    -0.057616     2.674527
 C    -0.854770     2.368178     1.093143
 H    -0.478744     2.633570     0.103851
 C    -1.753871     1.664888     3.619888
 H    -2.109223     1.377194     4.613571
 C    -0.554864     3.169788     2.186803
 H     0.053738     4.066258     2.038605
 C    -0.985228     2.824506     3.475431
 C    -0.621690     3.679174     4.653555
 H    -1.075015     4.680367     4.573037
 H    -0.958762     3.232113     5.599156
 H     0.468634     3.823639     4.712846
 C    -3.787382     0.208257    -2.182913
 H    -3.249699    -0.648661    -2.595504
 C    -4.005323     1.913680    -0.498971
 H    -3.660230     2.395562     0.418393
 C    -4.922059     0.692181    -2.820107
 H    -5.276124     0.202438    -3.731818
 C    -5.135939     2.403684    -1.153439
 H    -5.659482     3.270853    -0.740952
 C    -5.615228     1.805000    -2.321059
 C    -6.819050     2.341975    -3.038058
 H    -7.369169     3.064622    -2.419046
 H    -6.526824     2.855351    -3.969055
 H    -7.512059     1.534425    -3.319764
 C    -3.875035    -1.624431     0.759034
 H    -4.590689    -0.871861     0.420122
 C    -1.611981    -2.405971     1.003202
 H    -0.539023    -2.271159     0.858449
 C    -4.334595    -2.775959     1.393615
 H    -5.409631    -2.913217     1.541488
 C    -2.078119    -3.549354     1.642621
 H    -1.356813    -4.297231     1.983705
 C    -3.447049    -3.758896     1.846942
 C    -3.946873    -5.014164     2.499484
 H    -3.236233    -5.388017     3.251276
 H    -4.917858    -4.856224     2.990757
 H    -4.082945    -5.815642     1.754049
 C     2.071171    -2.335011     1.282781
 H     2.608510    -2.733379     0.418686
 C     0.996235    -0.512616     2.428585
 H     0.672450     0.527862     2.473549
 C     1.761659    -3.179344     2.347465
 H     2.067532    -4.228449     2.303528
 C     0.698463    -1.360671     3.488754
 H     0.149926    -0.961936     4.346706
 C     1.063461    -2.712375     3.465894
 C     0.678378    -3.629888     4.588291
 H     0.875041    -3.172642     5.569877
 H    -0.400114    -3.858726     4.548884
 H     1.223763    -4.582919     4.538632
 C     3.474644    -1.248107    -2.127322
 H     2.550688    -1.325068    -2.702680
 C     4.635272    -0.499654    -0.159119
 H     4.637854    -0.002695     0.813665
 C     4.668120    -1.769105    -2.627532
 H     4.669245    -2.267514    -3.600839
 C     5.821084    -1.016749    -0.663087
 H     6.740839    -0.919625    -0.078945
 C     5.860426    -1.662120    -1.908539
 C     7.152177    -2.200157    -2.449754
 H     7.679895    -2.806917    -1.697818
 H     6.988581    -2.824288    -3.339299
 H     7.830997    -1.380294    -2.736747
 C     2.907872     1.895902     1.672633
 H     3.041608     1.060917     2.363275
 C     2.214965     2.778161    -0.452478
 H     1.780235     2.621913    -1.442960
 C     3.275158     3.177551     2.078967
 H     3.693527     3.322353     3.079095
 C     2.592455     4.052163    -0.045580
 H     2.468543     4.893055    -0.734040
 C     3.118644     4.279560     1.233594
 C     3.485474     5.665090     1.677662
 H     4.101772     6.177268     0.922944
 H     2.585361     6.283263     1.830493
 H     4.044837     5.651802     2.623563
