  68
scf done:    -1837.549992
 C    -3.339948     1.195762    -0.617563
 H    -3.897402     1.623353     0.222978
 H    -3.204647     1.901745    -1.443575
 C    -3.513298    -0.204239    -0.912561
 H    -4.191178    -0.792507    -0.285385
 H    -3.512833    -0.531131    -1.956881
 H    -1.148852     0.410957    -1.659179
Ir    -1.550407     0.127254    -0.092782
 C     1.692341     1.594818    -0.535097
 C    -0.470988     3.470550     0.053521
 C     0.599937     1.833181     2.143846
 C     1.297478    -1.927424     0.623560
 C    -1.031410    -3.428397     0.091850
 C     0.186815    -2.096367    -2.163338
 P    -0.254261    -1.807028    -0.396106
 P     0.091348     1.735241     0.370229
 C    -2.092498    -0.182269     1.706892
 O    -2.420597    -0.360960     2.798080
 C     2.810909     1.111915     0.161090
 H     2.722673     0.834974     1.211904
 C     1.824199     1.879666    -1.915793
 C     0.695639     2.383336    -2.768532
 H     0.565926     3.471525    -2.657206
 H    -0.256263     1.898298    -2.505568
 H     0.899653     2.187374    -3.830560
 C     4.046810     0.949597    -0.456756
 H     4.893565     0.574362     0.122278
 C     3.074425     1.693161    -2.520527
 H     3.172596     1.912271    -3.587504
 C     4.183395     1.247727    -1.808045
 H     5.144935     1.123140    -2.311784
 H    -0.856571     3.486182    -0.974023
 C    -1.570558     3.904477     1.010980
 H    -1.205208     4.024885     2.041572
 H    -2.383345     3.163349     1.023265
 H     0.397044     4.149598     0.090147
 H    -1.995931     4.870163     0.698369
 H     1.036655     0.854388     2.395549
 C     1.502562     2.982142     2.565466
 H     1.013879     3.957267     2.424183
 H     2.443253     3.000669     1.996429
 H    -0.355821     1.863139     2.691382
 H     1.759938     2.897642     3.632856
 C     1.016663    -1.784269     1.994220
 H    -0.017007    -1.614785     2.306742
 C     2.640721    -2.114260     0.230180
 C     3.114282    -2.243922    -1.189684
 H     2.791812    -1.395139    -1.806682
 H     2.754480    -3.167653    -1.665116
 H     4.211697    -2.266962    -1.217359
 C     2.004741    -1.830808     2.969409
 H     1.738373    -1.715098     4.022497
 C     3.624565    -2.156709     1.231996
 H     4.664545    -2.296771     0.924768
 C     3.329333    -2.017986     2.581938
 H     4.129087    -2.054093     3.325379
 H    -0.745636    -3.599115     1.140877
 C    -2.542226    -3.500351    -0.046721
 H    -2.880575    -3.313651    -1.075174
 H    -3.025031    -2.744453     0.587760
 H    -0.527889    -4.218166    -0.492505
 H    -2.907176    -4.493819     0.257320
 H     0.815394    -2.994612    -2.237085
 C    -1.024901    -2.229338    -3.072312
 H    -1.691533    -1.362298    -2.964563
 H    -1.605391    -3.137205    -2.852425
 H     0.792243    -1.230754    -2.470894
 H    -0.703540    -2.291118    -4.123187
