  82
scf done:    -3264.174022
 C     0.859464     0.633945     3.741492
 H     1.265332    -0.198624     4.323981
 H     1.540122     1.487446     3.674525
 C    -0.555448     0.862750     3.730384
 H    -1.207735     0.202886     4.310338
 H    -0.937997     1.882438     3.636509
 H     0.299364     1.615101     1.450985
Ir     0.041048     0.050500     1.821188
 C     2.881603     0.946381    -0.167571
 O     2.823605    -1.498073     1.037905
 O     1.485738    -1.028016    -1.106726
 C    -2.845858    -0.864986    -0.224176
 O    -2.806919     1.483661     1.114506
 O    -1.416469     1.148468    -1.023009
 P    -1.728874     0.402523     0.432874
 P     1.771423    -0.365150     0.402545
 C    -0.222041    -1.763719     2.422998
 O    -0.355097    -2.826958     2.831627
 C     3.656773     0.804058    -1.327606
 H     3.554579    -0.092170    -1.940824
 C     3.008371     2.104388     0.605872
 H     2.389205     2.220566     1.498095
 C     4.545637     1.802364    -1.705176
 H     5.158755     1.713210    -2.603650
 C     3.898518     3.108786     0.238115
 H     4.001016     4.026528     0.818962
 C     4.654411     2.943313    -0.915261
 F     5.501056     3.899064    -1.277832
 C     4.031190    -1.796158     0.455964
 C     4.108291    -2.727231    -0.580130
 H     3.201132    -3.218142    -0.935386
 C     5.183045    -1.162806     0.923107
 H     5.095766    -0.435016     1.731423
 C     5.342056    -3.019724    -1.156680
 H     5.432732    -3.744233    -1.967869
 C     6.417457    -1.453056     0.351156
 H     7.333229    -0.969734     0.695671
 C     6.480606    -2.376606    -0.686070
 F     7.660154    -2.653278    -1.240209
 C     0.544715    -1.997172    -1.314841
 C     0.395141    -3.084534    -0.450003
 H     1.050063    -3.185434     0.416073
 C    -0.268377    -1.884894    -2.442743
 H    -0.134945    -1.033542    -3.110295
 C    -0.593927    -4.033999    -0.692512
 H    -0.742364    -4.877788    -0.016733
 C    -1.245720    -2.840570    -2.696956
 H    -1.901576    -2.766225    -3.565365
 C    -1.408412    -3.895732    -1.808091
 F    -2.373125    -4.789703    -2.028189
 C    -3.527056    -0.695412    -1.437469
 H    -3.327701     0.185605    -2.048423
 C    -3.100791    -2.000451     0.550703
 H    -2.575841    -2.146321     1.496336
 C    -4.448579    -1.642294    -1.865841
 H    -4.990613    -1.529043    -2.806312
 C    -4.023574    -2.954544     0.132610
 H    -4.226242    -3.852249     0.718407
 C    -4.684499    -2.761615    -1.073584
 F    -5.562954    -3.667990    -1.483089
 C    -4.030746     1.750091     0.551287
 C    -4.151750     2.672280    -0.488649
 H    -3.265445     3.185801    -0.863510
 C    -5.157194     1.087284     1.039496
 H    -5.036779     0.367551     1.850693
 C    -5.402550     2.926144    -1.046842
 H    -5.526515     3.642835    -1.860583
 C    -6.408065     1.337385     0.485063
 H    -7.303736     0.828966     0.845949
 C    -6.514341     2.252677    -0.556040
 F    -7.709887     2.491247    -1.093529
 C    -0.514977     2.163286    -1.192730
 C    -0.487332     3.280482    -0.352660
 H    -1.187691     3.350186     0.480593
 C     0.377523     2.066673    -2.259145
 H     0.344020     1.184896    -2.898376
 C     0.453428     4.283547    -0.568267
 H     0.508245     5.156604     0.084196
 C     1.311443     3.072706    -2.483376
 H     2.030063     3.009744    -3.301448
 C     1.347871     4.162349    -1.624077
 F     2.271194     5.106667    -1.808445
