  96
scf done:    -2603.944969
 C    -0.881564     1.183166    -3.449807
 H    -1.290217     0.450437    -4.154030
 H    -1.552724     2.027343    -3.264990
 C     0.540605     1.383304    -3.416310
 H     1.170554     0.806398    -4.101494
 H     0.938188     2.382126    -3.212627
 H    -0.336678     1.864987    -1.074857
Ir    -0.093752     0.342188    -1.635015
 C    -1.765827     0.469845     1.496240
 C    -3.460152     0.757203    -0.794150
 C    -2.478131    -1.818742    -0.057821
 C     1.818900    -1.242843     0.896598
 C     3.405919     0.054294    -1.061735
 C     2.096867     1.634865     0.909332
 P     1.775000     0.215781    -0.215803
 P    -1.922488    -0.079961    -0.246463
 C     0.105242    -1.417679    -2.358523
 O     0.211805    -2.476396    -2.795278
 C    -2.176647    -0.315875     2.576878
 H    -2.665757    -1.275821     2.398699
 C    -1.141171     1.696407     1.758154
 H    -0.805556     2.312684     0.922477
 C    -1.930710     0.101472     3.884861
 H    -2.241838    -0.535876     4.717559
 C    -0.903706     2.108638     3.062805
 H    -0.385734     3.056023     3.236085
 C    -1.279842     1.310260     4.152219
 C    -0.982654     1.749339     5.555575
 H    -1.523370     2.676575     5.804784
 H    -1.269875     0.983991     6.289986
 H     0.091014     1.959673     5.682683
 C    -3.878699     0.560814    -2.116730
 H    -3.277092    -0.058992    -2.784991
 C    -4.224694     1.559337     0.054440
 H    -3.905111     1.707198     1.089162
 C    -5.052441     1.154215    -2.565499
 H    -5.383852     0.993170    -3.594256
 C    -5.399797     2.179640    -0.391924
 C    -6.183354     3.070456     0.528465
 H    -7.215967     3.207448     0.177043
 H    -6.218973     2.661623     1.549310
 H    -5.721493     4.069586     0.596077
 C    -5.805236     1.961017    -1.710954
 H    -6.723457     2.429808    -2.075859
 C    -3.832038    -2.171968    -0.034833
 H    -4.601711    -1.404944    -0.141253
 C    -1.505176    -2.814856     0.076872
 H    -0.448236    -2.536743     0.061986
 C    -4.193026    -3.509599     0.112119
 H    -5.249895    -3.787764     0.119818
 C    -1.855358    -4.160395     0.223453
 C    -0.797979    -5.215224     0.365243
 H     0.124727    -4.923009    -0.154932
 H    -0.537369    -5.370452     1.424773
 H    -1.137629    -6.180541    -0.037478
 C    -3.215190    -4.493265     0.235761
 H    -3.510095    -5.541937     0.334047
 C     2.482556    -2.413139     0.510882
 H     3.068419    -2.429220    -0.411058
 C     1.067763    -1.262195     2.079745
 H     0.526383    -0.371539     2.400330
 C     2.401525    -3.563662     1.292323
 H     2.926636    -4.466850     0.968610
 C     0.996477    -2.413834     2.855489
 H     0.397601    -2.398788     3.770502
 C     1.663975    -3.586138     2.480740
 C     1.608280    -4.815362     3.339344
 H     2.363999    -4.770409     4.141586
 H     0.627119    -4.923222     3.825370
 H     1.805583    -5.725829     2.755302
 C     3.458864    -0.353203    -2.394965
 H     2.528528    -0.515244    -2.940360
 C     4.602033     0.285619    -0.369810
 H     4.569366     0.613111     0.672250
 C     4.693504    -0.538023    -3.018095
 H     4.730453    -0.860981    -4.061344
 C     5.844532     0.114404    -0.982388
 C     7.119787     0.381309    -0.236159
 H     7.663756     1.234584    -0.672594
 H     6.925817     0.613278     0.820302
 H     7.795995    -0.487043    -0.275471
 C     5.873024    -0.305873    -2.319925
 H     6.836472    -0.447474    -2.818341
 C     2.627459     1.491390     2.196734
 H     2.851919     0.500195     2.594439
 C     1.827649     2.917669     0.424243
 H     1.399964     3.018912    -0.577348
 C     2.852933     2.618986     2.982881
 H     3.253806     2.502678     3.993012
 C     2.058441     4.059256     1.198194
 C     1.777019     5.424649     0.641350
 H     2.600920     5.759642    -0.010350
 H     0.861533     5.427746     0.031548
 H     1.662729     6.172070     1.439381
 C     2.566395     3.890673     2.491761
 H     2.739785     4.768665     3.120476
