  90
scf done:    -3444.312716
 C    -0.944378     0.006677    -3.721665
 H    -1.267039    -0.925857    -4.196491
 H    -1.704568     0.792558    -3.757132
 C     0.447838     0.357563    -3.773429
 H     1.138226    -0.316519    -4.291314
 H     0.740868     1.408821    -3.846193
 H    -0.467914     1.366620    -1.649445
Ir    -0.076085    -0.218173    -1.765812
 C    -1.997277     1.102883     0.817666
 C    -3.528075    -0.472080    -1.034732
 C    -1.992260    -1.780528     0.921971
 C     2.204789    -1.049890     0.797787
 C     3.325348     0.595055    -1.234107
 C     1.616858     1.765625     0.727271
 P     1.732175     0.292625    -0.363626
 P    -1.861686    -0.374824    -0.259555
 C     0.416320    -2.043276    -2.062456
 O     0.750366    -3.120695    -2.292577
 C    -1.604450     1.093394     2.158290
 H    -1.316991     0.155336     2.637009
 C    -2.389148     2.320069     0.242888
 H    -2.683358     2.351950    -0.809024
 C    -1.578615     2.267370     2.908144
 H    -1.246566     2.259821     3.947028
 C    -2.403719     3.492110     0.987754
 H    -2.720145     4.435240     0.540115
 C    -1.981347     3.459640     2.316774
Cl    -1.939261     4.928449     3.237320
 C    -3.663480    -1.279193    -2.167040
 H    -2.777618    -1.757030    -2.590479
 C    -4.660765     0.152956    -0.500133
 H    -4.565947     0.786564     0.385582
 C    -4.917293    -1.457721    -2.746491
 H    -5.020911    -2.092100    -3.630137
 C    -5.922915    -0.006600    -1.079824
 C    -7.127416     0.687058    -0.511617
 H    -7.946644    -0.023873    -0.322202
 H    -6.891456     1.193410     0.434845
 H    -7.514260     1.446778    -1.210061
 C    -6.035348    -0.824667    -2.210899
 H    -7.014343    -0.963894    -2.678439
 C    -3.019247    -1.839121     1.873412
 H    -3.747711    -1.028860     1.950756
 C    -1.091864    -2.841614     0.828231
 H    -0.288833    -2.792139     0.093306
 C    -3.114992    -2.940457     2.718416
 H    -3.913560    -2.984664     3.463148
 C    -1.184546    -3.965265     1.657262
 C    -0.203368    -5.093296     1.531130
 H    -0.719550    -6.061794     1.443277
 H     0.437873    -4.965139     0.648149
 H     0.456057    -5.153762     2.411659
 C    -2.208008    -3.994702     2.609580
 H    -2.301642    -4.859655     3.272596
 C     3.266523    -1.921455     0.533680
 H     3.900126    -1.762442    -0.341333
 C     1.416533    -1.280488     1.932256
 H     0.574211    -0.621663     2.146630
 C     3.533508    -2.998205     1.377107
 H     4.357787    -3.681004     1.165293
 C     1.683058    -2.337187     2.793692
 H     1.061825    -2.509828     3.673745
 C     2.741231    -3.197254     2.504808
Cl     3.062047    -4.538587     3.556282
 C     3.587661    -0.103037    -2.416610
 H     2.822784    -0.762715    -2.829791
 C     4.295866     1.462830    -0.721834
 H     4.094534     2.016183     0.198633
 C     4.813737     0.054798    -3.059036
 H     5.019434    -0.498487    -3.978592
 C     5.523214     1.644734    -1.366553
 C     6.538839     2.609554    -0.826500
 H     6.511190     3.561425    -1.382533
 H     6.350779     2.840979     0.231398
 H     7.560642     2.211315    -0.915426
 C     5.771330     0.921849    -2.539931
 H     6.727854     1.045876    -3.055710
 C     2.173391     1.807298     2.010554
 H     2.655645     0.924579     2.433825
 C     1.030175     2.922155     0.202364
 H     0.587539     2.879730    -0.796233
 C     2.116510     2.986297     2.752632
 H     2.539874     3.011264     3.759898
 C     0.991681     4.116752     0.924757
 C     0.389488     5.357817     0.335654
 H    -0.132318     5.141418    -0.606593
 H    -0.327029     5.817255     1.033664
 H     1.166917     6.109867     0.123575
 C     1.532532     4.129484     2.216802
 H     1.487643     5.047042     2.809481
