  80
scf done:    -1994.695043
 C    -3.555047     0.671164    -1.127636
 H    -4.164729     1.316054    -0.485072
 H    -3.451893     1.058538    -2.146335
 C    -3.617977    -0.756711    -0.925152
 H    -4.270238    -1.148918    -0.137231
 H    -3.557771    -1.413173    -1.798701
 H    -1.286323    -0.266852    -1.836281
Ir    -1.710206    -0.011688    -0.267782
 C     1.316337     1.336907    -1.426696
 C    -0.752158     3.286106    -1.093426
 C     0.604226     2.223661     1.242227
 C     0.970910    -1.390162     1.534818
 C    -0.972063    -3.345855     0.797538
 C     0.817122    -2.274326    -1.222817
 P    -0.230493    -1.765213     0.198863
 P    -0.131566     1.709032    -0.365433
 C    -2.280839     0.310487     1.523529
 O    -2.620097     0.528061     2.603710
 C     2.615816     1.194130    -0.932587
 H     2.831576     1.385843     0.118791
 C     1.096765     1.066602    -2.786388
 H     0.085093     1.138292    -3.193241
 C     3.654656     0.770730    -1.763162
 H     4.659264     0.655661    -1.345868
 C     2.136191     0.659122    -3.611700
 H     1.932804     0.448367    -4.665517
 C     3.436397     0.488826    -3.113399
 C     4.541337     0.000059    -4.002713
 H     4.379121    -1.051786    -4.290629
 H     4.594758     0.584102    -4.934402
 H     5.518961     0.062858    -3.504611
 H     0.086075     3.994249    -1.206749
 H    -1.098212     3.029161    -2.108244
 C    -1.896813     3.893206    -0.293817
 H    -1.537479     4.182336     0.709086
 H    -2.659037     3.114054    -0.131002
 C    -2.518776     5.100038    -0.978397
 H    -1.778311     5.900134    -1.139728
 H    -2.930515     4.827121    -1.963172
 H    -3.340589     5.521562    -0.379759
 H    -0.244957     2.290445     1.942089
 H     1.187707     1.356352     1.593824
 C     1.433806     3.501242     1.287856
 H     0.779395     4.371933     1.117274
 H     2.164789     3.513380     0.462654
 C     2.159301     3.658650     2.616309
 H     1.449234     3.665475     3.458729
 H     2.857503     2.822577     2.785349
 H     2.737139     4.594569     2.656316
 C     0.483467    -1.159019     2.831026
 H    -0.579084    -1.292518     3.047881
 C     2.333885    -1.182548     1.303546
 H     2.755838    -1.342571     0.311002
 C     1.324210    -0.720276     3.845392
 H     0.911212    -0.539499     4.841840
 C     3.173182    -0.733686     2.324337
 H     4.233507    -0.570003     2.110507
 C     2.686729    -0.485164     3.609764
 C     3.576375     0.033649     4.700615
 H     4.632707     0.028401     4.397343
 H     3.309531     1.069600     4.967254
 H     3.481524    -0.569090     5.617000
 H    -0.164008    -4.046529     1.068296
 H    -1.505104    -3.096456     1.730083
 C    -1.939459    -3.963735    -0.202003
 H    -1.397880    -4.228431    -1.126748
 H    -2.675740    -3.197859    -0.492527
 C    -2.643766    -5.195264     0.345058
 H    -1.924627    -5.982009     0.625180
 H    -3.230485    -4.949486     1.244700
 H    -3.335716    -5.624031    -0.395755
 H     0.119215    -2.364909    -2.070300
 H     1.433536    -1.392767    -1.465420
 C     1.670472    -3.528146    -1.079765
 H     1.017693    -4.415799    -1.037789
 H     2.215689    -3.514549    -0.121520
 C     2.659552    -3.674034    -2.227215
 H     2.140353    -3.708272    -3.198363
 H     3.354220    -2.818659    -2.259051
 H     3.258724    -4.592591    -2.133955
