 116
scf done:    -3362.337073
 C    -0.979754    -2.360298    -2.401137
 H    -1.593471    -3.100716    -1.880545
 H    -1.506213    -1.882498    -3.234358
 C     0.441604    -2.551090    -2.482308
 H     0.887219    -3.431302    -2.010322
 H     0.976399    -2.223072    -3.380280
 H    -0.062813    -2.227371    -0.026443
Ir    -0.005050    -0.986976    -1.080582
 C     2.947451    -1.423601     0.996580
 C     3.315914     0.306506    -1.201242
 C     1.674429     1.262752     1.091057
 C    -1.896728    -0.453222     2.000434
 C    -2.241517     1.575015    -0.175289
 C    -3.449166    -1.128095    -0.247306
 P    -1.881840    -0.202295     0.163264
 P     1.972840    -0.197362    -0.006900
 C     0.119744     0.338185    -2.446694
 O     0.232176     1.050573    -3.346966
 C     2.404444    -2.702662     1.132640
 H     1.435835    -2.894600     0.663902
 C     4.212921    -1.147218     1.558730
 C     4.900596     0.182642     1.461897
 H     4.199609     1.023957     1.405472
 H     5.527050     0.231445     0.556235
 H     5.560250     0.335118     2.329052
 C     3.068532    -3.709340     1.828708
 H     2.613714    -4.698755     1.922603
 C     4.865712    -2.173513     2.252812
 H     5.842123    -1.960676     2.698353
 C     4.310784    -3.442738     2.394928
 H     4.850880    -4.217502     2.945401
 C     3.953092     1.557794    -1.346935
 O     3.714630     2.496884    -0.413024
 C     4.381605     3.722342    -0.448139
 H     4.014633     4.290994     0.416571
 H     5.475660     3.596881    -0.364681
 H     4.159836     4.291153    -1.368421
 C     3.751746    -0.728469    -2.062554
 O     3.273348    -1.948820    -1.791360
 C     3.748650    -3.068388    -2.476983
 H     3.290973    -3.940468    -1.994185
 H     4.846883    -3.152227    -2.402989
 H     3.454996    -3.054966    -3.540774
 C     4.654088    -0.496386    -3.107637
 H     4.945384    -1.304957    -3.776364
 C     4.854826     1.797415    -2.394395
 H     5.315176     2.777404    -2.509123
 C     5.180444     0.776303    -3.276212
 H     5.878237     0.970753    -4.094104
 C     1.228734     2.453473     0.480602
 O     1.056608     2.400648    -0.847773
 C     0.799474     3.576859    -1.563789
 H     0.749411     3.285072    -2.618682
 H    -0.162421     4.025085    -1.269737
 H     1.608751     4.314124    -1.422841
 C     1.794924     1.259979     2.494079
 O     2.141330     0.100018     3.076767
 C     2.485695     0.061722     4.429316
 H     2.842882    -0.958303     4.623296
 H     1.618594     0.270931     5.079490
 H     3.295535     0.774785     4.664023
 C     1.587001     2.427999     3.241732
 H     1.706489     2.416758     4.324014
 C     1.031173     3.625259     1.218018
 H     0.712238     4.541455     0.724095
 C     1.231687     3.602007     2.592756
 H     1.090856     4.516494     3.174795
 C    -0.747451    -1.026582     2.544430
 H     0.091380    -1.238062     1.882646
 C    -3.007194    -0.202007     2.835479
 C    -4.299427     0.383947     2.348535
 H    -4.993019    -0.413891     2.036197
 H    -4.172320     1.043700     1.482002
 H    -4.790829     0.951451     3.153099
 C    -0.664478    -1.356997     3.894186
 H     0.245523    -1.821328     4.279791
 C    -2.898958    -0.524795     4.193191
 H    -3.752466    -0.321413     4.847069
 C    -1.748167    -1.101316     4.727085
 H    -1.705979    -1.352423     5.790342
 C    -2.149231     2.606794     0.774456
 O    -1.773484     2.261716     2.015390
 C    -2.043407     3.107238     3.093904
 H    -1.796532     2.535201     3.997571
 H    -1.421884     4.017508     3.071476
 H    -3.109371     3.394508     3.122643
 C    -2.557915     1.932644    -1.503412
 O    -2.620551     0.913992    -2.374613
 C    -2.940512     1.150205    -3.713995
 H    -2.940544     0.170213    -4.207262
 H    -2.188631     1.793661    -4.200798
 H    -3.940174     1.607174    -3.819965
 C    -2.831353     3.256387    -1.860515
 H    -3.082680     3.514365    -2.888435
 C    -2.447796     3.935128     0.429373
 H    -2.396237     4.720135     1.182925
 C    -2.790666     4.244482    -0.879746
 H    -3.016173     5.279604    -1.148018
 C    -4.663115    -0.619892    -0.756759
 O    -4.818284     0.717118    -0.787970
 C    -5.969949     1.287870    -1.330273
 H    -5.817922     2.374746    -1.291270
 H    -6.126162     0.985948    -2.381131
 H    -6.873047     1.027579    -0.750110
 C    -3.390678    -2.523560    -0.028159
 O    -2.299829    -2.958988     0.612872
 C    -2.037264    -4.321545     0.754279
 H    -1.055988    -4.393407     1.240937
 H    -1.990857    -4.832373    -0.223401
 H    -2.790406    -4.820311     1.389332
 C    -4.417008    -3.385937    -0.431694
 H    -4.329942    -4.460391    -0.275682
 C    -5.695414    -1.477066    -1.165400
 H    -6.616988    -1.069845    -1.578563
 C    -5.555626    -2.850764    -1.017281
 H    -6.362169    -3.513290    -1.340205
