 102
scf done:    -2880.890266
 C    -0.098195    -2.980478    -2.374324
 H     0.353563    -2.934702    -3.371029
 H     0.309331    -3.781098    -1.749414
 C    -1.484222    -2.628313    -2.218903
 H    -2.050339    -2.317862    -3.103956
 H    -2.093967    -3.175861    -1.493479
 H    -0.197311    -2.022125     0.001633
Ir    -0.262165    -1.084158    -1.348944
 C     3.181577    -1.329089    -0.417451
 C     2.296691     1.316795    -1.271892
 C     1.416278     0.244374     1.382577
 C    -1.485256     2.018468    -0.132819
 C    -3.450178     0.228870    -1.267944
 C    -2.453551    -0.142072     1.455481
 P    -1.883288     0.225943    -0.269688
 P     1.711141    -0.234668    -0.406612
 C    -0.165500    -0.093789    -2.974391
 O    -0.060760     0.493707    -3.960232
 C     4.362495    -1.060745     0.295205
 H     4.457757    -0.164113     0.904354
 C     3.124357    -2.482444    -1.209991
 H     2.202960    -2.684284    -1.759721
 C     5.443912    -1.933396     0.232190
 H     6.362131    -1.736333     0.787816
 C     4.203676    -3.357523    -1.290405
 H     4.166208    -4.258873    -1.904637
 C     5.349720    -3.071858    -0.558963
 F     6.384742    -3.906851    -0.619328
 H     2.332526     0.997075    -2.324943
 H     1.446002     2.009701    -1.192045
 C     3.597984     1.954573    -0.888586
 C     4.790129     1.402275    -1.375880
 H     4.736787     0.534931    -2.037793
 C     3.662511     3.106143    -0.076185
 C     2.426618     3.834946     0.366657
 H     1.668891     3.175410     0.811153
 H     1.938860     4.336566    -0.484798
 H     2.668172     4.610900     1.106236
 C     6.031880     1.924409    -1.028560
 H     6.944058     1.465375    -1.416474
 C     4.919277     3.615298     0.269811
 H     4.969220     4.503898     0.905393
 C     6.097910     3.029911    -0.185250
 H     7.064160     3.449584     0.104362
 H     1.076480     1.289360     1.341721
 H     0.538597    -0.362900     1.638571
 C     2.487922     0.056661     2.408769
 C     3.303773     1.126463     2.791252
 H     3.132191     2.109942     2.351700
 C     2.701166    -1.216096     2.979960
 C     1.834537    -2.384762     2.615245
 H     1.868585    -2.595096     1.534748
 H     0.776067    -2.202222     2.865304
 H     2.151872    -3.292143     3.146401
 C     4.349157     0.951966     3.693435
 H     4.983661     1.799371     3.962838
 C     3.751067    -1.372281     3.890404
 H     3.925794    -2.359103     4.327555
 C     4.578659    -0.308065     4.240936
 H     5.397877    -0.463252     4.947048
 C    -1.242828     2.730414    -1.318523
 H    -1.285917     2.219090    -2.282941
 C    -1.385745     2.707944     1.082316
 H    -1.555204     2.194693     2.029477
 C    -0.944050     4.087506    -1.299957
 H    -0.762338     4.644588    -2.220834
 C    -1.073021     4.066573     1.118371
 H    -0.989152     4.607029     2.062916
 C    -0.863132     4.741702    -0.074825
 F    -0.550642     6.034443    -0.048206
 H    -3.179884     0.764779    -2.193164
 H    -3.568749    -0.820938    -1.562000
 C    -4.709304     0.780542    -0.662665
 C    -4.784920     2.129120    -0.288317
 H    -3.916614     2.773172    -0.438526
 C    -5.844661    -0.043054    -0.496479
 C    -5.847279    -1.484136    -0.917645
 H    -5.059732    -2.061897    -0.411201
 H    -5.685625    -1.587313    -2.002922
 H    -6.809087    -1.956672    -0.678130
 C    -5.945822     2.667714     0.260819
 H    -5.976311     3.722613     0.543221
 C    -7.002305     0.516756     0.056546
 H    -7.880849    -0.120848     0.187050
 C    -7.062051     1.854476     0.437954
 H    -7.981025     2.260409     0.867409
 H    -1.539931    -0.205704     2.070153
 H    -3.007948     0.743103     1.790260
 C    -3.305858    -1.368624     1.652890
 C    -2.882594    -2.615708     1.180146
 H    -1.926024    -2.676882     0.657444
 C    -4.525122    -1.274642     2.358442
 C    -5.005576     0.019818     2.948482
 H    -5.110935     0.807484     2.187321
 H    -4.311280     0.392975     3.719317
 H    -5.987550    -0.110476     3.422541
 C    -3.655980    -3.759763     1.361093
 H    -3.303733    -4.719894     0.976827
 C    -5.290036    -2.434687     2.526141
 H    -6.238713    -2.362900     3.064992
 C    -4.872586    -3.667463     2.031192
 H    -5.494553    -4.553895     2.176953
