  80
scf done:    -1994.668295
 C     2.100501    -2.102874    -0.968584
 H     2.484648    -1.935817    -1.980202
 H     2.866065    -2.011975    -0.192882
 C     1.006787    -3.009555    -0.777326
 H     0.588745    -3.519617    -1.652021
 H     0.961646    -3.610779     0.135605
 H     0.786109    -1.195281     1.062430
Ir     0.323262    -0.971424    -0.501397
 C     3.124917     0.750666     0.299624
 C     1.529813     2.286430    -1.544472
 C     0.850066     2.215148     1.338443
 C    -2.793799     0.500410     0.401948
 C    -3.005167    -2.056865    -0.860412
 C    -2.078553    -1.805560     2.023958
 P    -1.886481    -1.094875     0.306760
 P     1.354022     1.108817    -0.099591
 C    -0.226130    -0.814084    -2.313008
 O    -0.592421    -0.777894    -3.407504
 C     3.433094     0.018700     1.458093
 H     2.628130    -0.333537     2.103299
 C     4.189866     1.064261    -0.552579
 H     4.018567     1.591250    -1.491208
 C     4.740226    -0.330748     1.771509
 H     4.934369    -0.901932     2.684069
 C     5.500298     0.699476    -0.242710
 H     6.302453     0.960045    -0.939017
 C     5.807357     0.008764     0.930019
 C     7.216981    -0.367392     1.278972
 H     7.292854    -1.433166     1.544842
 H     7.904499    -0.175835     0.443196
 H     7.577630     0.208058     2.147413
 H     2.159892     1.685232    -2.223232
 C     0.225683     2.547107    -2.292065
 H     0.437407     3.131299    -3.202174
 H    -0.260504     1.615551    -2.601879
 H    -0.496271     3.116666    -1.692228
 C     2.257008     3.592506    -1.225937
 H     3.159339     3.444964    -0.617010
 H     2.560922     4.090636    -2.161016
 H     1.605092     4.294638    -0.687140
 H     1.733101     2.846583     1.538590
 C    -0.336839     3.105793     0.985820
 H    -0.684796     3.629843     1.889942
 H    -0.091829     3.871361     0.240133
 H    -1.181106     2.516661     0.605893
 C     0.523424     1.411793     2.591344
 H     1.384590     0.859853     2.986364
 H     0.175220     2.092417     3.384745
 H    -0.277238     0.687039     2.384442
 C    -2.986865     1.199508    -0.801182
 H    -2.621499     0.774154    -1.739459
 C    -3.242179     1.100689     1.581456
 H    -3.102048     0.608218     2.544669
 C    -3.614181     2.437199    -0.820298
 H    -3.748720     2.954631    -1.774585
 C    -3.863638     2.350609     1.558685
 H    -4.196565     2.797714     2.499527
 C    -4.063713     3.042301     0.363323
 C    -4.711672     4.394850     0.335329
 H    -5.118947     4.667904     1.318775
 H    -3.987942     5.173764     0.044622
 H    -5.533952     4.430309    -0.396092
 H    -2.713519    -1.613837    -1.828409
 C    -2.616396    -3.530068    -0.906595
 H    -3.088016    -4.017061    -1.774782
 H    -1.528479    -3.656760    -0.988681
 H    -2.960277    -4.064204    -0.007457
 C    -4.511464    -1.873199    -0.710595
 H    -4.800993    -0.815350    -0.641514
 H    -5.017217    -2.300243    -1.592105
 H    -4.907277    -2.392500     0.172105
 H    -1.696193    -0.975516     2.645312
 C    -3.508538    -2.122188     2.453204
 H    -3.540018    -2.296696     3.541034
 H    -4.222163    -1.320615     2.219331
 H    -3.866824    -3.043281     1.970513
 C    -1.161847    -2.998149     2.275921
 H    -0.120683    -2.754988     2.028706
 H    -1.216774    -3.286509     3.337955
 H    -1.456572    -3.872776     1.678326
