 104
scf done:    -2308.955969
 C    -0.572781    -3.608425    -1.045567
 H    -1.346075    -4.163818    -0.503009
 H    -0.761603    -3.556422    -2.122588
 C     0.790483    -3.693552    -0.577978
 H     1.009595    -4.307333     0.302551
 H     1.597413    -3.700776    -1.317327
 H     0.558574    -1.406058    -1.684734
Ir     0.001578    -1.733457    -0.172067
 C    -1.012844     1.255046    -1.710590
 C    -3.075871    -0.732373    -1.605528
 C    -2.363158     0.717954     0.797198
 C     1.105512     1.004585     1.736529
 C     3.129634    -0.987491     1.406887
 C     2.433329     0.723847    -0.821916
 P     1.677695    -0.257600     0.533302
 P    -1.616808    -0.120130    -0.659808
 C    -0.667394    -2.195799     1.553209
 O    -1.095262    -2.470507     2.587953
 C    -0.907322     2.575025    -1.262851
 H    -1.277677     2.855853    -0.276531
 C    -0.512387     0.951219    -2.986214
 H    -0.553320    -0.078716    -3.349369
 C    -0.294202     3.550475    -2.050826
 H    -0.211917     4.572121    -1.668717
 C     0.083718     1.928480    -3.772115
 H     0.472477     1.660125    -4.758669
 C     0.219756     3.247436    -3.313509
 C     0.914252     4.282150    -4.148205
 H     0.822275     5.284903    -3.708138
 H     1.988448     4.053408    -4.241595
 H     0.502144     4.317633    -5.168483
 H    -2.674156    -1.144586    -2.545957
 H    -3.716125     0.124538    -1.868923
 C    -3.832844    -1.811553    -0.845731
 H    -3.101561    -2.555113    -0.488325
 H    -4.298234    -1.378782     0.059156
 C    -4.915304    -2.525731    -1.657575
 H    -4.426006    -2.945877    -2.556683
 C    -5.494019    -3.685801    -0.856069
 H    -4.707878    -4.393724    -0.551083
 H    -6.244786    -4.243042    -1.437708
 H    -5.987122    -3.320859     0.060638
 C    -6.016370    -1.577766    -2.119973
 H    -6.790049    -2.114224    -2.691055
 H    -5.628777    -0.774401    -2.764431
 H    -6.511150    -1.103707    -1.254952
 H    -1.538390     1.279605     1.265873
 H    -2.588502    -0.094166     1.505557
 C    -3.579649     1.607443     0.572941
 H    -3.464730     2.187249    -0.358144
 H    -4.477004     0.980787     0.423882
 C    -3.839498     2.584894     1.723308
 H    -2.942129     3.228214     1.810909
 C    -5.031297     3.479581     1.406456
 H    -4.889577     4.018090     0.456272
 H    -5.195029     4.228037     2.197382
 H    -5.955211     2.884145     1.316381
 C    -4.023587     1.870225     3.057408
 H    -4.242872     2.588170     3.863378
 H    -3.124631     1.306591     3.348880
 H    -4.866465     1.160008     3.009922
 C     0.629990     0.575127     2.985700
 H     0.692846    -0.480420     3.261084
 C     0.982765     2.361684     1.422802
 H     1.334116     2.740350     0.462614
 C     0.036279     1.465125     3.871376
 H    -0.333876     1.097002     4.832492
 C     0.377815     3.250410     2.312679
 H     0.284789     4.304290     2.034519
 C    -0.115445     2.821442     3.546987
 C    -0.802474     3.764342     4.489676
 H    -0.716012     4.806792     4.152771
 H    -1.875465     3.525379     4.570218
 H    -0.379939     3.696958     5.504022
 H     2.730095    -1.480294     2.308915
 H     3.785047    -0.169857     1.746979
 C     3.863936    -2.000857     0.542066
 H     3.119096    -2.699891     0.129228
 H     4.318837    -1.491693    -0.327717
 C     4.952698    -2.793581     1.267888
 H     4.475629    -3.287666     2.135569
 C     5.504309    -3.883179     0.355736
 H     4.704469    -4.551389     0.000890
 H     6.257295    -4.498875     0.871936
 H     5.987566    -3.442129    -0.532353
 C     6.072122    -1.900830     1.791789
 H     6.849790    -2.492805     2.299067
 H     5.704890    -1.153655     2.511430
 H     6.556619    -1.357024     0.962737
 H     1.611787     1.332855    -1.232835
 H     2.653098    -0.014455    -1.607332
 C     3.649858     1.579059    -0.491046
 H     3.536389     2.041207     0.503981
 H     4.547472     0.938956    -0.420859
 C     3.909053     2.690987    -1.512088
 H     3.011484     3.339924    -1.519229
 C     5.100837     3.540053    -1.087776
 H     4.959269     3.956993    -0.078305
 H     5.264108     4.380554    -1.780234
 H     6.025005     2.938397    -1.072150
 C     4.092400     2.146920    -2.924376
 H     4.311103     2.959015    -3.635627
 H     3.192670     1.624024    -3.281772
 H     4.935344     1.436343    -2.965491
