 104
scf done:    -2308.950446
 C     0.806905    -3.079424    -1.511885
 H     0.215954    -3.953280    -1.215344
 H     0.726618    -2.853296    -2.579967
 C     2.059097    -2.834782    -0.837336
 H     2.376768    -3.529951    -0.052389
 H     2.895810    -2.422692    -1.409693
 H     1.158368    -0.568681    -1.573787
Ir     0.608800    -1.358457    -0.245145
 C    -1.154493     1.379832    -1.524703
 C    -2.436571    -1.136215    -2.008731
 C    -2.542134     0.039948     0.637133
 C     0.451343     1.152655     2.218001
 C     3.014937    -0.034892     2.075719
 C     2.138172     1.857712     0.024241
 P     1.583625     0.388193     0.984382
 P    -1.390872    -0.269263    -0.762261
 C    -0.041394    -2.380188     1.229066
 O    -0.459607    -3.013825     2.096905
 C    -1.492184     2.577024    -0.886930
 H    -1.990180     2.565314     0.083364
 C    -0.501610     1.455708    -2.764552
 H    -0.195811     0.536932    -3.271072
 C    -1.171801     3.807955    -1.462294
 H    -1.436830     4.729026    -0.935236
 C    -0.200853     2.682703    -3.340240
 H     0.311435     2.710226    -4.306429
 C    -0.519272     3.886666    -2.694454
 C    -0.139542     5.204147    -3.302677
 H    -0.577810     6.046950    -2.750266
 H     0.955471     5.335968    -3.301100
 H    -0.470429     5.272976    -4.350412
 H    -3.290788    -0.495235    -2.284297
 H    -1.806539    -1.244070    -2.906691
 C    -2.891647    -2.506370    -1.528905
 H    -2.012022    -3.058501    -1.157417
 H    -3.570090    -2.395215    -0.664337
 C    -3.588118    -3.320861    -2.609535
 H    -2.905361    -3.436215    -3.470967
 H    -4.461752    -2.761586    -2.992023
 C    -4.035362    -4.696082    -2.134103
 H    -3.157842    -5.245499    -1.750064
 H    -4.712976    -4.577232    -1.269883
 C    -4.721939    -5.516066    -3.214248
 H    -5.032351    -6.503551    -2.840341
 H    -4.053629    -5.681676    -4.074640
 H    -5.622398    -5.005456    -3.592525
 H    -2.584575    -0.909648     1.195350
 H    -2.008793     0.731504     1.308590
 C    -3.944038     0.550266     0.332318
 H    -3.907151     1.358085    -0.418333
 H    -4.545812    -0.254175    -0.124010
 C    -4.640534     1.062278     1.586450
 H    -4.033333     1.877766     2.021144
 H    -4.648338     0.263541     2.350654
 C    -6.059939     1.557858     1.354150
 H    -6.045713     2.346005     0.580471
 H    -6.667435     0.737649     0.932402
 C    -6.720911     2.089689     2.615696
 H    -7.744565     2.444960     2.423233
 H    -6.150648     2.932728     3.039036
 H    -6.780139     1.311173     3.393533
 C    -0.087985     0.335093     3.224003
 H     0.225286    -0.708233     3.306708
 C     0.006083     2.476330     2.147756
 H     0.400972     3.154326     1.390788
 C    -1.051490     0.814816     4.101253
 H    -1.457506     0.147705     4.866864
 C    -0.972985     2.950132     3.022940
 H    -1.311648     3.986532     2.933790
 C    -1.529754     2.129801     4.006769
 C    -2.618403     2.620420     4.914672
 H    -2.705417     3.715741     4.886532
 H    -3.594722     2.201546     4.617905
 H    -2.440577     2.317086     5.957425
 H     3.395028     0.896218     2.531129
 H     2.581478    -0.632031     2.895854
 C     4.120089    -0.832130     1.400874
 H     3.659291    -1.662910     0.842576
 H     4.629924    -0.210063     0.646621
 C     5.149736    -1.373107     2.382416
 H     4.639557    -2.007518     3.130441
 H     5.596861    -0.538805     2.953967
 C     6.255074    -2.176469     1.711174
 H     5.799419    -3.001214     1.135371
 H     6.762289    -1.539069     0.965170
 C     7.277659    -2.734461     2.687622
 H     8.062209    -3.308862     2.171933
 H     6.803458    -3.405248     3.422203
 H     7.772865    -1.928125     3.252688
 H     1.213794     2.293515    -0.389387
 H     2.560033     2.592784     0.731521
 C     3.098869     1.595203    -1.125374
 H     4.075859     1.252911    -0.745965
 H     2.699031     0.768174    -1.735210
 C     3.292789     2.829502    -1.995065
 H     3.731255     3.646721    -1.392931
 H     2.300234     3.191283    -2.316689
 C     4.155715     2.584291    -3.223812
 H     5.152835     2.229678    -2.908006
 H     3.717417     1.756338    -3.808616
 C     4.302798     3.813042    -4.106751
 H     4.926459     3.610732    -4.990752
 H     4.766181     4.648225    -3.556854
 H     3.321127     4.163416    -4.466486
