 100
scf done:    -2904.727922
 C    -1.373783     1.120690     2.976646
 H    -2.030600     1.994032     2.915099
 H    -1.884917     0.201800     3.276367
 C     0.004776     1.307385     3.316244
 H     0.374347     2.318384     3.514728
 H     0.534144     0.526795     3.868304
 H    -0.032431    -0.704561     1.769837
Ir    -0.165030     0.819212     1.209495
 C    -1.281306    -1.416584    -1.477837
 O    -2.911576    -0.801884     0.610418
 O    -2.448141     0.899999    -1.296078
 C     2.827426     1.741458    -0.494064
 O     3.079253    -0.022232     1.424198
 O     1.921336    -0.831100    -0.732671
 P     1.891576     0.425775     0.346112
 P    -1.661587    -0.122869    -0.239377
 C    -0.206878     2.702691     0.753052
 O    -0.151858     3.831232     0.569669
 C    -1.294877    -1.079626    -2.837919
 H    -1.559608    -0.063463    -3.129901
 C    -0.936819    -2.727431    -1.082037
 C    -0.908887    -3.171409     0.349498
 H    -1.929344    -3.363761     0.716872
 H    -0.462468    -2.413902     1.008169
 H    -0.335924    -4.103313     0.451853
 C    -1.003483    -2.025792    -3.815475
 H    -1.030018    -1.744604    -4.870647
 C    -0.644641    -3.659402    -2.085238
 H    -0.379944    -4.677607    -1.788443
 C    -0.684145    -3.326730    -3.435512
 H    -0.454007    -4.083020    -4.189798
 C    -3.934968    -1.582045     0.141242
 C    -4.469508    -1.470579    -1.141783
 H    -4.076121    -0.729034    -1.835808
 C    -4.468797    -2.508460     1.039479
 H    -4.048369    -2.562637     2.045730
 C    -5.519513    -2.306556    -1.517500
 H    -5.930864    -2.211802    -2.526246
 C    -5.520285    -3.328515     0.647448
 H    -5.930675    -4.047094     1.362587
 C    -6.062085    -3.251515    -0.642197
 C    -7.173680    -4.165803    -1.069436
 H    -7.700666    -3.774065    -1.951136
 H    -7.912568    -4.305917    -0.266105
 H    -6.787992    -5.164860    -1.333473
 C    -2.758442     2.194537    -0.976749
 C    -3.433527     2.513424     0.200895
 H    -3.723069     1.717209     0.888666
 C    -2.397372     3.197154    -1.873309
 H    -1.872203     2.925677    -2.790881
 C    -3.715773     3.846539     0.484364
 H    -4.236395     4.092129     1.414019
 C    -2.695767     4.523076    -1.577750
 H    -2.401691     5.305996    -2.281980
 C    -3.346033     4.875439    -0.389219
 C    -3.604286     6.313407    -0.046308
 H    -2.740112     6.748880     0.482961
 H    -4.479478     6.421750     0.610500
 H    -3.775149     6.920272    -0.947454
 C     3.915759     2.336773     0.155184
 H     4.237227     1.941788     1.119709
 C     2.384535     2.237350    -1.740146
 C     1.227346     1.640829    -2.486001
 H     0.357949     1.486442    -1.830621
 H     1.488449     0.658116    -2.907813
 H     0.923347     2.295399    -3.314225
 C     4.586045     3.411591    -0.419607
 H     5.435751     3.863747     0.096832
 C     3.077244     3.318304    -2.295662
 H     2.746854     3.710136    -3.261344
 C     4.164318     3.902459    -1.652109
 H     4.679794     4.747538    -2.114780
 C     2.858928    -0.926464     2.430337
 C     3.133483    -0.540747     3.740268
 H     3.480812     0.476377     3.930306
 C     2.397395    -2.214041     2.161787
 H     2.183555    -2.506718     1.132928
 C     2.942560    -1.446109     4.779166
 H     3.154268    -1.132421     5.805209
 C     2.203559    -3.104620     3.214475
 H     1.830598    -4.109263     2.996359
 C     2.471453    -2.743188     4.539044
 C     2.288120    -3.719663     5.664665
 H     1.942194    -3.218311     6.580697
 H     3.236366    -4.227254     5.909471
 H     1.556910    -4.499087     5.406368
 C     2.956258    -1.217904    -1.545072
 C     2.597809    -1.828548    -2.747715
 H     1.538745    -1.960615    -2.971953
 C     4.302078    -1.057523    -1.217423
 H     4.585935    -0.603644    -0.268876
 C     3.585313    -2.265153    -3.622425
 H     3.289495    -2.745391    -4.559645
 C     5.276569    -1.497407    -2.112259
 H     6.329508    -1.367124    -1.847425
 C     4.945359    -2.102341    -3.327779
 C     6.004502    -2.546051    -4.295020
 H     6.120329    -1.821500    -5.118531
 H     5.754391    -3.516168    -4.750556
 H     6.983141    -2.643783    -3.803813
