  76
scf done:    -2066.507279
 C    -0.120203    -3.763190    -1.067989
 H    -0.382076    -4.499512    -0.300727
 H    -0.833121    -3.734458    -1.898186
 C     1.274056    -3.511089    -1.341558
 H     2.029965    -4.065124    -0.774526
 H     1.581510    -3.294060    -2.368838
 H     0.028086    -1.315674    -1.844917
Ir     0.411416    -1.817507    -0.325426
 O    -1.414963     0.908933    -0.391823
 C    -3.042791    -1.329817    -0.644499
 C    -2.006771    -0.421324     1.911665
 O     1.418030     0.922307     1.161173
 C     3.585913    -0.230423    -0.000065
 C     1.656757     1.209333    -1.617943
 P     1.784123     0.026390    -0.222729
 P    -1.523539    -0.686052     0.164106
 C     0.948010    -2.451217     1.401052
 O     1.311034    -2.821479     2.427479
 C    -2.457561     1.750121    -0.635559
 C    -2.961223     2.570678     0.377974
 H    -2.522644     2.517048     1.375996
 C    -2.978603     1.834033    -1.929601
 H    -2.547771     1.205058    -2.711006
 C    -4.010929     3.444242     0.099666
 H    -4.405761     4.080920     0.895111
 C    -4.028912     2.708284    -2.196434
 H    -4.438695     2.765786    -3.207729
 C    -4.554424     3.510371    -1.182774
 H    -5.379063     4.194050    -1.395185
 H    -2.897404    -1.133589    -1.720671
 H    -2.943874    -2.424261    -0.542942
 C    -4.418631    -0.868035    -0.175082
 H    -4.486896     0.229899    -0.199065
 H    -4.564830    -1.159345     0.878145
 C    -5.534057    -1.459581    -1.023541
 H    -5.444148    -1.137987    -2.073422
 H    -5.507912    -2.561037    -1.011770
 H    -6.524134    -1.143068    -0.662021
 H    -1.159337     0.129704     2.353521
 H    -2.890648     0.236580     1.951181
 C    -2.264498    -1.716092     2.673607
 H    -1.393498    -2.381269     2.568929
 H    -3.110884    -2.256602     2.216184
 C    -2.549515    -1.475145     4.147902
 H    -1.699020    -0.974566     4.636911
 H    -3.436102    -0.835920     4.287216
 H    -2.731229    -2.420917     4.680183
 C     1.704484     2.241508     1.348127
 C     0.783748     3.208335     0.935278
 H    -0.139221     2.878107     0.458221
 C     2.887202     2.623941     1.985331
 H     3.579750     1.852350     2.326700
 C     1.066488     4.557577     1.130227
 H     0.346852     5.310131     0.798533
 C     3.159866     3.977311     2.177150
 H     4.087522     4.274718     2.672303
 C     2.257304     4.948389     1.743829
 H     2.477254     6.007701     1.893180
 H     4.089184     0.745212     0.107739
 H     3.687632    -0.759971     0.962431
 C     4.201854    -1.052405    -1.125826
 H     4.090494    -0.513567    -2.082850
 H     3.622344    -1.983413    -1.237166
 C     5.669987    -1.367836    -0.887189
 H     6.271267    -0.448675    -0.798261
 H     5.805510    -1.942570     0.042857
 H     6.090673    -1.963809    -1.711217
 H     1.607726     0.556583    -2.505451
 H     0.644241     1.635146    -1.523230
 C     2.717897     2.288857    -1.800050
 H     3.688651     1.817257    -2.026923
 H     2.863290     2.852241    -0.866146
 C     2.348361     3.255927    -2.914518
 H     2.206398     2.730794    -3.872815
 H     1.407847     3.780376    -2.681880
 H     3.128662     4.018069    -3.060974
