  84
scf done:    -4284.686965
 C    -0.742752     0.402176    -3.487869
 H    -1.301089    -0.402000    -3.978502
 H    -1.261202     1.365348    -3.510641
 C     0.692323     0.364310    -3.529900
 H     1.177556    -0.460240    -4.063211
 H     1.252876     1.301601    -3.596414
 H     0.042222     1.547013    -1.374332
Ir     0.000343    -0.084591    -1.531750
 C    -1.655530     1.195567     1.383460
 C    -3.271017     0.912722    -0.948126
 C    -2.581464    -1.385367     0.585796
 C     1.628554    -1.209430     1.397886
 C     3.389994    -0.895889    -0.803751
 C     2.505733     1.423878     0.533924
 P     1.850646    -0.170729    -0.097575
 P    -1.833478     0.139349    -0.110779
 C    -0.112516    -1.979067    -1.799507
 O    -0.194048    -3.112897    -1.965022
 C    -2.341891     0.917961     2.569405
 H    -2.990463     0.042861     2.639451
 C    -0.825176     2.321764     1.319139
 H    -0.282431     2.523393     0.392537
 C    -2.186336     1.758567     3.670814
 H    -2.717409     1.536139     4.599680
 C    -0.667504     3.177260     2.413224
 C     0.212567     4.389399     2.330087
 H     0.669741     4.485477     1.336936
 H    -0.359263     5.307971     2.535827
 H     1.029481     4.343158     3.066711
 C    -1.357398     2.873578     3.595334
 H    -1.243170     3.525157     4.466417
 C    -3.752098     0.307508    -2.117253
 H    -3.264199    -0.593994    -2.495243
 C    -3.890443     2.076941    -0.486398
 H    -3.532026     2.563894     0.422746
 C    -4.835668     0.840146    -2.803728
 H    -5.213494     0.365940    -3.710837
 C    -4.968421     2.631181    -1.175436
 H    -5.449332     3.543589    -0.819239
 C    -5.437308     2.007134    -2.328210
Cl    -6.779152     2.686104    -3.185875
 C    -3.965385    -1.551954     0.722709
 H    -4.647475    -0.775475     0.369478
 C    -1.731338    -2.399183     1.042539
 H    -0.650554    -2.293428     0.937101
 C    -4.490642    -2.700976     1.307999
 H    -5.568804    -2.833528     1.411255
 C    -2.242736    -3.546202     1.639697
 H    -1.573216    -4.329132     1.998289
 C    -3.623300    -3.690419     1.769312
Cl    -4.269031    -5.117444     2.506211
 C     2.002506    -2.558052     1.360528
 H     2.543669    -2.955242     0.499214
 C     0.924183    -0.725801     2.509611
 H     0.602214     0.317710     2.537134
 C     1.676644    -3.398304     2.423800
 H     1.971496    -4.449996     2.390731
 C     0.599272    -1.558745     3.584513
 C    -0.186160    -1.038342     4.751120
 H    -0.084271     0.050528     4.853547
 H    -1.259404    -1.252269     4.615498
 H     0.128011    -1.513278     5.692107
 C     0.986274    -2.903845     3.526416
 H     0.738900    -3.570406     4.357185
 C     3.371244    -1.490306    -2.066289
 H     2.440990    -1.487079    -2.636505
 C     4.590886    -0.879999    -0.081077
 H     4.631145    -0.415662     0.906944
 C     4.519894    -2.068929    -2.603181
 H     4.503758    -2.534352    -3.589837
 C     5.744981    -1.449588    -0.603888
 H     6.681153    -1.437067    -0.043557
 C     5.701046    -2.044670    -1.866736
Cl     7.135611    -2.756215    -2.522086
 C     3.024926     1.596335     1.821603
 H     3.009048     0.771260     2.536477
 C     2.553956     2.499402    -0.361794
 H     2.142777     2.373753    -1.366501
 C     3.559247     2.820185     2.217651
 H     3.950377     2.958802     3.226889
 C     3.097606     3.721902     0.016127
 H     3.131015     4.560096    -0.681689
 C     3.588085     3.878110     1.312467
Cl     4.206146     5.414679     1.814249
