 100
scf done:    -2904.732689
 C     0.554659    -2.766091    -2.437389
 H    -0.072893    -3.641306    -2.236505
 H     0.393410    -2.334609    -3.428961
 C     1.854977    -2.693911    -1.841553
 H     2.186155    -3.503184    -1.184568
 H     2.674448    -2.211131    -2.379308
 H     1.023458    -0.282372    -2.092230
Ir     0.539677    -1.262651    -0.879570
 C    -1.587077     1.410470    -1.948314
 O    -2.873151    -0.775024    -1.467788
 O    -1.795774     0.359313     0.582660
 C     1.074442     0.485981     2.135842
 O     3.229534    -0.526284     1.071644
 O     2.167844     1.510436    -0.138962
 P     1.773085     0.043490     0.520690
 P    -1.432181    -0.111986    -0.964826
 C     0.045813    -2.472244     0.545495
 O    -0.204556    -3.176469     1.415133
 C    -0.549015     2.345208    -1.856985
 H     0.357058     2.109527    -1.294429
 C    -2.726099     1.702559    -2.701999
 H    -3.525207     0.962753    -2.762646
 C    -0.685722     3.577746    -2.487735
 H     0.109920     4.322246    -2.403701
 C    -2.861726     2.931681    -3.357166
 C    -4.080575     3.220148    -4.184416
 H    -3.999823     2.750544    -5.178728
 H    -4.989608     2.821255    -3.710433
 H    -4.218473     4.299652    -4.339272
 C    -1.831428     3.868921    -3.227785
 H    -1.926242     4.841496    -3.718841
 C    -3.516080    -1.834705    -0.877723
 C    -2.884819    -3.066584    -0.722415
 H    -1.869887    -3.184812    -1.100090
 C    -4.850002    -1.639161    -0.481580
 C    -5.554032    -0.344860    -0.749533
 H    -4.998347     0.515084    -0.350193
 H    -5.668064    -0.179833    -1.833360
 H    -6.555614    -0.345988    -0.299311
 C    -3.554701    -4.114891    -0.095709
 H    -3.049163    -5.073576     0.039424
 C    -5.497914    -2.711069     0.139313
 H    -6.532760    -2.575443     0.465217
 C    -4.861240    -3.933398     0.349498
 H    -5.393184    -4.747395     0.846863
 C    -2.886919     0.985824     1.114672
 C    -3.297954     2.249122     0.691222
 H    -2.761744     2.751297    -0.113364
 C    -3.518056     0.323808     2.181856
 C    -3.003833    -1.001309     2.648309
 H    -3.078663    -1.762210     1.856155
 H    -1.939939    -0.929415     2.921661
 H    -3.569145    -1.356700     3.520144
 C    -4.391410     2.857418     1.306848
 H    -4.718455     3.843900     0.970458
 C    -4.606600     0.961684     2.781314
 H    -5.114127     0.461274     3.610474
 C    -5.052053     2.211587     2.348593
 H    -5.909165     2.683451     2.834167
 C     1.189708    -0.393591     3.215513
 H     1.805841    -1.289867     3.130402
 C     0.285875     1.635572     2.251297
 H     0.195873     2.316044     1.400710
 C     0.512434    -0.111201     4.400251
 H     0.600906    -0.791645     5.250522
 C    -0.401433     1.925057     3.431742
 C    -1.276502     3.138184     3.543894
 H    -1.093040     3.843478     2.721921
 H    -2.340645     2.853755     3.500920
 H    -1.111401     3.665101     4.495910
 C    -0.274950     1.031983     4.504706
 H    -0.806770     1.239289     5.437510
 C     4.085491    -1.247241     0.272187
 C     4.685165    -0.654554    -0.835453
 H     4.467861     0.388504    -1.067230
 C     4.351656    -2.575188     0.631578
 C     3.686955    -3.183503     1.827365
 H     3.872970    -2.584590     2.732230
 H     2.594573    -3.233755     1.694290
 H     4.052986    -4.203469     2.005750
 C     5.561550    -1.396704    -1.623474
 H     6.029759    -0.933257    -2.494689
 C     5.239857    -3.294697    -0.172206
 H     5.459472    -4.333610     0.088581
 C     5.837214    -2.721445    -1.293768
 H     6.522535    -3.310606    -1.907023
 C     3.191772     2.357936     0.209456
 C     3.643332     2.507527     1.519294
 H     3.189982     1.926315     2.321668
 C     3.767836     3.072574    -0.854277
 C     3.277797     2.871298    -2.256143
 H     3.966365     3.325648    -2.981364
 H     3.162333     1.802933    -2.493649
 H     2.284242     3.322329    -2.405477
 C     4.680539     3.398198     1.787204
 H     5.034938     3.514115     2.813904
 C     4.804153     3.959642    -0.551286
 H     5.266194     4.522767    -1.366815
 C     5.261366     4.128921     0.754286
 H     6.076460     4.825589     0.961754
