 110
scf done:    -3283.941376
 C    -0.250875    -2.642488    -2.490128
 H    -0.710951    -3.582372    -2.168349
 H    -0.788126    -2.149356    -3.305991
 C     1.173592    -2.488863    -2.389798
 H     1.780627    -3.308694    -1.992864
 H     1.698008    -1.881054    -3.131952
 H     0.206760    -0.159550    -2.062850
Ir     0.207315    -1.279733    -0.881257
 C    -2.725605     0.288968    -1.883672
 O    -2.991565    -1.211098     0.292710
 O    -1.787095     1.004127     0.582493
 C     1.343760     0.932450     1.706828
 O     3.183864    -0.540476     0.599708
 O     2.219356     1.285170    -0.915236
 P     1.721425     0.098912     0.118897
 P    -1.796397    -0.314821    -0.433194
 C     0.329077    -2.719747     0.408276
 O     0.470010    -3.621526     1.102553
 C    -2.287806     1.505651    -2.448018
 O    -1.261050     2.088958    -1.817157
 C    -0.679727     3.258900    -2.314282
 H     0.181658     3.457818    -1.666360
 H    -0.329541     3.126693    -3.352352
 H    -1.381800     4.109603    -2.269704
 C    -3.715282    -0.447816    -2.565060
 O    -4.022580    -1.663201    -2.085394
 C    -4.991191    -2.439461    -2.728144
 H    -5.065955    -3.374110    -2.157876
 H    -4.705732    -2.676770    -3.768006
 H    -5.978951    -1.946162    -2.732164
 C    -4.322387     0.082572    -3.713252
 H    -5.103272    -0.471054    -4.232135
 C    -2.891311     2.035516    -3.592614
 H    -2.565910     2.990413    -4.002906
 C    -3.913112     1.317663    -4.202046
 H    -4.394515     1.723551    -5.095076
 C    -2.755821    -1.997864     1.382112
 C    -2.486030    -1.422967     2.625143
 H    -2.414240    -0.336124     2.700784
 C    -2.843820    -3.381219     1.238606
 H    -3.040378    -3.795336     0.248577
 C    -2.328526    -2.229656     3.756114
 C    -2.132705    -1.605228     5.108328
 H    -1.629758    -0.630580     5.031083
 H    -3.104549    -1.432853     5.600417
 H    -1.544254    -2.252631     5.775930
 C    -2.660253    -4.187321     2.358118
 H    -2.710838    -5.273917     2.255918
 C    -2.407183    -3.619854     3.605458
 H    -2.273860    -4.264528     4.478432
 C    -2.770806     1.945687     0.692046
 C    -4.127830     1.631446     0.632650
 H    -4.431530     0.593467     0.489529
 C    -2.358323     3.266829     0.881641
 H    -1.289131     3.470584     0.903898
 C    -5.093459     2.639386     0.750043
 C    -6.549451     2.285241     0.652903
 H    -6.791077     1.892787    -0.348176
 H    -6.819606     1.502738     1.379184
 H    -7.191589     3.157830     0.837563
 C    -3.315164     4.265360     1.012125
 H    -2.999168     5.301157     1.161696
 C    -4.675293     3.958188     0.943548
 H    -5.420431     4.752044     1.040101
 C     1.051592     2.299669     1.866813
 O     1.083781     3.085417     0.771520
 C     1.319529     4.461483     0.924737
 H     1.574444     4.845748    -0.071315
 H     0.428248     4.994386     1.299681
 H     2.168965     4.646526     1.602156
 C     1.231157     0.092579     2.838437
 O     1.454785    -1.214420     2.631109
 C     1.401053    -2.115448     3.705244
 H     1.603626    -3.106194     3.283073
 H     0.401198    -2.133434     4.165497
 H     2.159732    -1.874242     4.469021
 C     0.905080     0.612638     4.095537
 H     0.840796    -0.038352     4.965717
 C     0.728719     2.821511     3.125844
 H     0.510341     3.882184     3.241583
 C     0.662334     1.975261     4.223717
 H     0.404792     2.385218     5.203138
 C     3.757758    -1.585098    -0.073720
 C     4.170760    -1.436099    -1.395188
 H     4.011828    -0.477989    -1.894665
 C     3.932555    -2.792882     0.598214
 H     3.591451    -2.876705     1.630238
 C     4.758920    -2.504725    -2.078247
 C     5.144943    -2.355476    -3.520839
 H     5.602724    -1.374320    -3.716090
 H     5.853668    -3.135354    -3.833472
 H     4.255768    -2.434670    -4.168518
 C     4.529184    -3.855544    -0.073670
 H     4.672586    -4.808526     0.441421
 C     4.936419    -3.715693    -1.399924
 H     5.397311    -4.560046    -1.919098
 C     3.184390     2.234691    -0.768543
 C     4.043190     2.320782     0.326848
 H     3.981104     1.579509     1.123521
 C     3.278832     3.161492    -1.811712
 H     2.605146     3.058131    -2.663898
 C     4.984591     3.354458     0.407445
 C     5.901584     3.427935     1.594471
 H     5.339236     3.357354     2.538359
 H     6.621195     2.593271     1.586772
 H     6.475158     4.365304     1.605298
 C     4.217357     4.183691    -1.734758
 H     4.291107     4.910301    -2.547884
 C     5.062015     4.289124    -0.629214
 H     5.794381     5.098439    -0.574639
