  84
scf done:    -2819.407404
 C    -0.690466    -4.113989    -0.875128
 H    -1.171025    -4.698648    -0.084764
 H    -1.268447    -4.071833    -1.802066
 C     0.740956    -4.056528    -0.932845
 H     1.331326    -4.596194    -0.186196
 H     1.234539    -3.974068    -1.905013
 H    -0.108973    -1.803463    -1.836405
Ir    -0.026752    -2.159001    -0.242894
 O    -1.556943     0.679818    -0.868647
 O    -3.230972    -1.243646    -0.676277
 O    -2.196651    -0.245840     1.423919
 O     1.668918     0.317306     1.151716
 O     3.196759    -1.321711    -0.062956
 O     1.835844     0.368578    -1.409972
 P     1.682829    -0.684642    -0.165178
 P    -1.776604    -0.751645    -0.086404
 C     0.071093    -2.655527     1.629754
 O     0.147925    -2.926657     2.738251
 C    -2.427716     1.369110    -1.674729
 C    -2.970191     2.569966    -1.221406
 H    -2.727272     2.926155    -0.219345
 C    -2.710966     0.886675    -2.951767
 H    -2.258848    -0.050647    -3.279677
 C    -3.830087     3.281549    -2.055463
 H    -4.263314     4.220000    -1.701723
 C    -3.576464     1.605537    -3.772970
 H    -3.808538     1.227446    -4.771291
 C    -4.142140     2.800848    -3.327045
 H    -4.820807     3.360708    -3.974189
 C    -4.468627    -0.995131    -0.128158
 C    -5.325711    -0.081386    -0.738517
 H    -5.001716     0.445079    -1.636399
 C    -4.863310    -1.691663     1.014376
 H    -4.173999    -2.404733     1.468920
 C    -6.582347     0.149084    -0.181366
 H    -7.252583     0.868967    -0.656824
 C    -6.119779    -1.449520     1.563667
 H    -6.425937    -1.988503     2.463241
 C    -6.981683    -0.525292     0.971844
 H    -7.965745    -0.336363     1.406347
 C    -2.352857     1.058456     1.832471
 C    -3.630740     1.544616     2.100767
 H    -4.494033     0.890784     1.970160
 C    -1.226222     1.865390     1.991537
 H    -0.238334     1.448851     1.785722
 C    -3.778100     2.867087     2.516808
 H    -4.778558     3.253581     2.724954
 C    -1.389452     3.187785     2.397643
 H    -0.508072     3.823249     2.513714
 C    -2.663933     3.694619     2.657363
 H    -2.787794     4.731839     2.976601
 C     2.729280     0.682464     1.947910
 C     3.265167     1.964442     1.842642
 H     2.859716     2.660461     1.107895
 C     3.219525    -0.225960     2.885767
 H     2.768515    -1.217139     2.956267
 C     4.323501     2.326754     2.673829
 H     4.749909     3.328953     2.588713
 C     4.280580     0.147246     3.707137
 H     4.671619    -0.565110     4.437202
 C     4.839640     1.421447     3.600558
 H     5.672676     1.710118     4.245205
 C     4.325667    -0.915622    -0.732521
 C     5.347660    -0.275842    -0.033535
 H     5.231389    -0.083748     1.033474
 C     4.448754    -1.183297    -2.095983
 H     3.633867    -1.689773    -2.615806
 C     6.495719     0.117446    -0.718452
 H     7.295514     0.624065    -0.173295
 C     5.599410    -0.780810    -2.769721
 H     5.693915    -0.981520    -3.839421
 C     6.624116    -0.125427    -2.085786
 H     7.524178     0.190233    -2.617849
 C     2.092887     1.719796    -1.339315
 C     3.348391     2.201907    -1.704051
 H     4.122811     1.505205    -2.025797
 C     1.079550     2.588195    -0.935040
 H     0.104460     2.177263    -0.675032
 C     3.593128     3.572612    -1.637302
 H     4.578439     3.952603    -1.917150
 C     1.339313     3.954852    -0.868464
 H     0.545915     4.633414    -0.545842
 C     2.597180     4.451978    -1.212509
 H     2.798299     5.524198    -1.158042
