  92
scf done:    -2675.757206
 C    -1.047818    -2.741342    -2.747732
 H    -1.742390    -3.509195    -2.389772
 H    -1.448011    -2.148251    -3.576384
 C     0.368558    -3.013434    -2.706760
 H     0.708414    -3.982333    -2.325652
 H     1.006466    -2.615348    -3.501636
 H     0.085798    -0.473408    -2.417484
Ir    -0.140180    -1.556158    -1.203111
 O    -0.738768     1.435933    -0.066311
 C    -2.733363     0.697561    -1.823327
 C    -2.652607    -0.245202     0.979243
 O     1.840941     0.157246     1.099795
 C     3.213695    -1.799004    -0.214680
 C     2.400327     0.786174    -1.421418
 P     1.806206    -0.620696    -0.389459
 P    -1.597845     0.060895    -0.498963
 C    -0.438705    -2.940838     0.096055
 O    -0.601811    -3.820860     0.814646
 C    -1.152963     2.713250     0.166643
 C    -0.601501     3.720278    -0.629866
 H     0.098692     3.441730    -1.419926
 C    -2.025314     3.044632     1.206463
 H    -2.424031     2.264342     1.852766
 C    -0.952796     5.049889    -0.411973
 H    -0.519455     5.830700    -1.041579
 C    -2.379037     4.376172     1.407954
 H    -3.075501     4.627187     2.211320
 C    -1.852250     5.383184     0.600234
 H    -2.133194     6.425283     0.766426
 H    -3.104726    -0.217563    -2.311327
 H    -2.049731     1.165115    -2.548646
 C    -3.859187     1.615268    -1.449360
 C    -3.780614     2.989964    -1.701532
 H    -2.891692     3.396255    -2.188285
 C    -5.017755     1.117841    -0.835898
 H    -5.119055     0.043883    -0.656634
 C    -4.808779     3.848049    -1.322346
 H    -4.717742     4.918400    -1.520820
 C    -6.047650     1.974916    -0.453714
 H    -6.940126     1.565970     0.026119
 C    -5.943736     3.345082    -0.688357
 H    -6.750209     4.017562    -0.386640
 H    -3.438426     0.526932     1.029647
 H    -1.975682    -0.085429     1.832952
 C    -3.251327    -1.622523     1.064589
 C    -3.356379    -2.243924     2.314611
 H    -2.989229    -1.718312     3.198913
 C    -3.710738    -2.319023    -0.060251
 H    -3.617775    -1.880341    -1.055190
 C    -3.900992    -3.518940     2.439467
 H    -3.966000    -3.986082     3.425158
 C    -4.253642    -3.596841     0.060535
 H    -4.593864    -4.124163    -0.833807
 C    -4.349600    -4.202799     1.310767
 H    -4.767223    -5.207835     1.404847
 C     1.010204    -0.051309     2.149206
 C     0.485847     1.071400     2.797576
 H     0.730674     2.062600     2.414748
 C     0.711555    -1.330629     2.622278
 H     1.141662    -2.205818     2.135756
 C    -0.341678     0.908667     3.903763
 H    -0.748092     1.792021     4.402498
 C    -0.126466    -1.484536     3.725418
 H    -0.361857    -2.491534     4.076992
 C    -0.658773    -0.369451     4.370256
 H    -1.310938    -0.493257     5.237697
 H     3.203414    -2.362181    -1.161220
 H     2.870143    -2.512553     0.554012
 C     4.589108    -1.284094     0.093778
 C     4.860869    -0.565020     1.265584
 H     4.052281    -0.352997     1.966306
 C     5.639454    -1.530426    -0.797476
 H     5.443276    -2.097061    -1.712383
 C     6.143331    -0.092025     1.523503
 H     6.332384     0.481766     2.433672
 C     6.926809    -1.065050    -0.535279
 H     7.733162    -1.270408    -1.243778
 C     7.181710    -0.339198     0.625576
 H     8.187688     0.033769     0.832072
 H     1.465746     1.326869    -1.631544
 H     2.713230     0.321419    -2.369883
 C     3.444965     1.712026    -0.875533
 C     4.760747     1.678271    -1.347320
 H     5.036424     0.957337    -2.119985
 C     3.110465     2.653348     0.106530
 H     2.081546     2.703552     0.466515
 C     5.726985     2.537628    -0.831278
 H     6.751958     2.484250    -1.205210
 C     4.074437     3.514078     0.623672
 H     3.795255     4.239421     1.392032
 C     5.388892     3.454973     0.161726
 H     6.146583     4.128081     0.570165
