  96
scf done:    -2603.940294
 C    -0.841542     0.122970    -3.500603
 H    -1.229943    -0.769971    -4.001811
 H    -1.530707     0.971669    -3.541171
 C     0.576786     0.354464    -3.512854
 H     1.219868    -0.367782    -4.026776
 H     0.960195     1.377784    -3.560395
 H    -0.305597     1.403222    -1.393464
Ir    -0.043356    -0.206588    -1.529739
 C    -1.957413     1.257267     1.000660
 C    -3.520724    -0.253297    -0.882890
 C    -2.124084    -1.623782     1.116352
 C     2.185041    -1.251640     1.032738
 C     3.377691     0.411929    -0.949778
 C     1.724265     1.581590     1.051903
 P     1.772114     0.143441    -0.090109
 P    -1.869409    -0.232523    -0.064285
 C     0.303436    -2.060245    -1.849848
 O     0.550696    -3.156965    -2.099495
 C    -1.561898     1.241684     2.340743
 H    -1.261872     0.306058     2.816310
 C    -2.335449     2.472633     0.417866
 H    -2.616518     2.493555    -0.639154
 C    -1.556866     2.424182     3.077712
 H    -1.226931     2.410571     4.118881
 C    -2.372612     3.658368     1.154897
 C    -2.860578     4.930905     0.524719
 H    -2.555780     5.001270    -0.529903
 H    -3.962028     4.981950     0.546711
 H    -2.480660     5.817321     1.052217
 C    -1.969603     3.618342     2.495254
 H    -1.971899     4.538629     3.086015
 C    -3.661951    -1.038087    -2.029601
 H    -2.784440    -1.540184    -2.441980
 C    -4.642635     0.401624    -0.360870
 H    -4.543049     1.018776     0.535753
 C    -4.909227    -1.163862    -2.637270
 H    -5.016197    -1.780503    -3.533062
 C    -5.897174     0.294803    -0.967525
 C    -7.089042     1.018701    -0.410067
 H    -7.924961     0.327179    -0.220643
 H    -6.846482     1.523980     0.535371
 H    -7.455783     1.782901    -1.114408
 C    -6.015379    -0.500749    -2.114264
 H    -6.988941    -0.598161    -2.603406
 C    -3.138766    -1.584031     2.084766
 H    -3.769764    -0.698552     2.186050
 C    -1.345614    -2.771873     0.996672
 H    -0.550093    -2.796989     0.251820
 C    -3.341724    -2.678234     2.916454
 H    -4.128290    -2.645791     3.674445
 C    -1.550438    -3.892356     1.813871
 C    -0.692979    -5.110491     1.640066
 H    -0.754287    -5.491620     0.608840
 H     0.365714    -4.871092     1.829468
 H    -0.991880    -5.918435     2.322583
 C    -2.555180    -3.824913     2.780229
 H    -2.731470    -4.683939     3.433765
 C     1.333527    -1.520684     2.112690
 H     0.467863    -0.882817     2.295110
 C     3.280236    -2.088282     0.808651
 H     3.955025    -1.882762    -0.025857
 C     1.594655    -2.592741     2.956944
 H     0.928619    -2.790371     3.800305
 C     3.542632    -3.187418     1.637607
 C     4.707058    -4.089889     1.348793
 H     4.477599    -4.770447     0.512136
 H     5.598946    -3.513704     1.060441
 H     4.964740    -4.709648     2.219314
 C     2.690999    -3.423011     2.720311
 H     2.888197    -4.267116     3.387110
 C     3.631787    -0.296976    -2.128491
 H     2.856180    -0.944414    -2.541289
 C     4.363817     1.260319    -0.436905
 H     4.171135     1.818568     0.482494
 C     4.863141    -0.167883    -2.765489
 H     5.062061    -0.730348    -3.681020
 C     5.597844     1.414953    -1.077774
 C     6.626809     2.365015    -0.536400
 H     6.540537     3.353430    -1.018111
 H     6.503616     2.517230     0.545447
 H     7.648762     2.001628    -0.719377
 C     5.836633     0.682468    -2.246128
 H     6.797895     0.784419    -2.757932
 C     2.262662     1.537960     2.342479
 H     2.676979     0.608327     2.736150
 C     1.215563     2.790367     0.565619
 H     0.780940     2.812162    -0.437080
 C     2.273554     2.689735     3.127722
 H     2.684589     2.650046     4.139671
 C     1.244950     3.956717     1.332487
 C     0.741523     5.255703     0.776397
 H     1.580062     5.907370     0.479559
 H     0.114937     5.094342    -0.111109
 H     0.147345     5.807619     1.519944
 C     1.772860     3.887400     2.627589
 H     1.788467     4.785966     3.251198
