  94
scf done:    -4663.890060
 C    -0.971184    -0.969746    -3.353323
 H    -1.648672    -1.824078    -3.458849
 H    -1.380902    -0.044614    -3.770493
 C     0.446582    -1.204573    -3.415004
 H     0.790746    -2.234504    -3.562913
 H     1.094817    -0.466053    -3.896877
 H     0.070478     0.831829    -1.942095
Ir    -0.129628    -0.687707    -1.398229
 C    -2.522682     1.814705    -1.231008
 C    -3.462554    -0.746071    -0.175728
 C    -1.859298     0.808076     1.426337
 C     1.626453    -0.268056     1.776916
 C     3.139049    -1.507491    -0.267116
 C     2.764389     1.207079    -0.486966
 P     1.758988    -0.281398    -0.063244
 P    -1.954878     0.309187    -0.340329
 C    -0.318466    -2.516328    -0.839340
 O    -0.413525    -3.627579    -0.557069
 C    -1.703424     2.962888    -1.193090
 O    -0.585181     2.860978    -0.456805
 C     0.365085     3.890381    -0.498402
 H     1.247390     3.508528     0.024306
 H     0.649234     4.135438    -1.534342
 H    -0.005369     4.803974     0.000124
 C    -3.643218     1.837847    -2.088692
 O    -4.321295     0.690069    -2.231473
 C    -5.497316     0.641846    -2.987146
 H    -5.872061    -0.386045    -2.900021
 H    -5.310858     0.868867    -4.051086
 H    -6.261670     1.336477    -2.598368
 C    -3.997241     3.005283    -2.778923
 H    -4.877014     3.021178    -3.420519
 C    -2.049799     4.128805    -1.886661
 H    -1.423756     5.017681    -1.827773
 C    -3.203162     4.138295    -2.661524
 H    -3.480363     5.046721    -3.201466
 C    -3.571722    -1.937381    -0.893402
 H    -2.760588    -2.231559    -1.560400
 C    -4.515058    -0.366310     0.665313
 H    -4.446185     0.557233     1.244714
 C    -4.708099    -2.735469    -0.789988
 H    -4.790275    -3.668122    -1.350425
 C    -5.659118    -1.148266     0.775691
 H    -6.481277    -0.851171     1.428850
 C    -5.749333    -2.332005     0.042700
Cl    -7.172392    -3.312642     0.174425
 C    -1.559131    -0.226310     2.322186
 H    -1.354575    -1.229280     1.936798
 C    -2.127775     2.081020     1.930547
 H    -2.401924     2.892791     1.255829
 C    -1.518944     0.000259     3.690979
 H    -1.279585    -0.805673     4.384448
 C    -2.060675     2.330572     3.300982
 H    -2.258450     3.327884     3.698185
 C    -1.745749     1.289496     4.169591
Cl    -1.587705     1.608347     5.867986
 C     1.564590     0.869758     2.605556
 O     1.459345     2.070922     2.008894
 C     1.479788     3.225029     2.805897
 H     1.419003     4.078823     2.121508
 H     0.618307     3.255301     3.492871
 H     2.414404     3.301414     3.387244
 C     1.537805    -1.532425     2.401680
 O     1.406955    -2.573231     1.565235
 C     1.555890    -3.888322     2.028398
 H     1.463956    -4.532738     1.146446
 H     0.765012    -4.157340     2.748747
 H     2.544523    -4.036896     2.494049
 C     1.577160    -1.671535     3.791812
 H     1.547781    -2.657211     4.254388
 C     1.609875     0.737684     4.001424
 H     1.579515     1.615331     4.643760
 C     1.635088    -0.525172     4.576435
 H     1.659570    -0.615221     5.664766
 C     4.186176    -1.617880     0.655838
 H     4.185050    -1.011890     1.564686
 C     3.164172    -2.308747    -1.408046
 H     2.346344    -2.222123    -2.125865
 C     5.227295    -2.516234     0.452053
 H     6.038905    -2.607609     1.175883
 C     4.204163    -3.209729    -1.630456
 H     4.218780    -3.837270    -2.523056
 C     5.229981    -3.310832    -0.695409
Cl     6.523164    -4.435923    -0.952147
 C     3.745846     1.722372     0.369692
 H     3.885717     1.296791     1.365021
 C     2.638651     1.758107    -1.763186
 H     1.875306     1.358328    -2.434249
 C     4.551547     2.785173    -0.020203
 H     5.306789     3.192720     0.653792
 C     3.448828     2.814276    -2.176092
 H     3.344071     3.241613    -3.174694
 C     4.394185     3.331012    -1.295600
Cl     5.391357     4.660884    -1.784043
