  96
scf done:    -3000.709265
 C     0.025795    -3.265440    -2.519982
 H     0.494040    -3.225023    -3.509347
 H     0.509834    -3.973968    -1.840807
 C    -1.397805    -3.068167    -2.416470
 H    -1.974260    -2.883770    -3.329277
 H    -1.951501    -3.623641    -1.653365
 H    -0.363912    -2.233213    -0.242752
Ir    -0.369472    -1.352392    -1.621125
 C     1.639943    -0.466485     1.105135
 C     3.051819    -1.598759    -1.195888
 C     2.133173     1.180521    -1.329179
 C    -1.749319     1.768371    -0.501089
 C    -3.658830    -0.124165    -1.352150
 C    -2.314897    -0.459398     1.232041
 P    -1.971583    -0.058880    -0.541480
 P     1.604463    -0.515614    -0.726062
 C    -0.307712    -0.416677    -3.290721
 O    -0.239786     0.139898    -4.297912
 C     1.145682     0.641971     1.804766
 H     0.788027     1.520588     1.268800
 C     2.034503    -1.593833     1.833451
 H     2.348068    -2.498386     1.307388
 C     1.109443     0.630291     3.196767
 H     0.733204     1.505770     3.731810
 C     2.008670    -1.619740     3.231588
 C     2.469753    -2.837516     3.978942
 H     1.977082    -2.920675     4.958393
 H     2.265171    -3.757480     3.411841
 H     3.556666    -2.801516     4.163548
 C     1.550260    -0.483729     3.907990
 H     1.520527    -0.480739     5.000905
 H     2.843507    -2.579337    -0.743108
 H     2.903562    -1.743323    -2.276517
 C     4.438588    -1.114262    -0.907731
 C     5.157880    -0.418187    -1.890088
 H     4.718768    -0.282209    -2.882152
 C     5.053020    -1.305877     0.338353
 H     4.527433    -1.849446     1.124018
 C     6.425738     0.099606    -1.638909
 H     6.983248     0.645192    -2.402062
 C     6.321877    -0.799913     0.606398
 H     6.800947    -0.945905     1.576151
 C     6.991621    -0.093327    -0.385446
 F     8.203139     0.397223    -0.132228
 H     2.904682     0.974085    -2.087962
 H     1.258889     1.567136    -1.868632
 C     2.613095     2.218566    -0.357686
 C     1.843001     3.369550    -0.152921
 H     0.916794     3.501812    -0.715353
 C     3.792094     2.071777     0.383139
 H     4.410047     1.183904     0.252142
 C     2.218511     4.340693     0.771880
 H     1.615161     5.235817     0.934943
 C     4.184859     3.034095     1.307811
 H     5.100643     2.920661     1.890605
 C     3.388332     4.156970     1.496997
 F     3.755237     5.076150     2.390880
 C    -1.529449     2.416705    -1.726703
 H    -1.437472     1.835362    -2.646919
 C    -1.845128     2.542063     0.657349
 H    -2.027954     2.066053     1.622587
 C    -1.448634     3.803885    -1.781446
 H    -1.295876     4.300698    -2.742571
 C    -1.729946     3.939280     0.623601
 C    -1.785786     4.731073     1.896636
 H    -2.579654     4.363535     2.563841
 H    -0.832862     4.649371     2.445990
 H    -1.966798     5.797591     1.703157
 C    -1.548972     4.562000    -0.613479
 H    -1.475837     5.651682    -0.663591
 H    -3.482795     0.241640    -2.375136
 H    -3.903682    -1.191895    -1.448646
 C    -4.738239     0.651072    -0.662592
 C    -5.581715     0.041927     0.276803
 H    -5.489245    -1.028483     0.475412
 C    -4.902706     2.024241    -0.897229
 H    -4.263953     2.526461    -1.626509
 C    -6.547154     0.769270     0.968974
 H    -7.206343     0.295243     1.698283
 C    -5.861567     2.766513    -0.215295
 H    -5.990836     3.834838    -0.397372
 C    -6.671502     2.128932     0.716249
 F    -7.590060     2.834832     1.375067
 H    -1.516565     0.039563     1.799806
 H    -3.270813     0.013460     1.513836
 C    -2.292358    -1.921027     1.571484
 C    -3.164942    -2.847578     0.988356
 H    -3.903460    -2.519493     0.255741
 C    -1.350769    -2.395032     2.490476
 H    -0.652932    -1.692469     2.949071
 C    -3.099032    -4.202167     1.301484
 H    -3.771847    -4.928503     0.842325
 C    -1.269325    -3.745332     2.818062
 H    -0.531233    -4.116115     3.531654
 C    -2.145804    -4.636256     2.213982
 F    -2.073695    -5.932815     2.516350
