  58
scf done:    -1830.828615
 C    -4.267331     0.991803    -0.367089
 H    -4.797688     1.203207     0.567417
 H    -4.279839     1.831964    -1.068272
 C    -4.291855    -0.352828    -0.889488
 H    -4.839316    -1.123617    -0.336895
 H    -4.319414    -0.498954    -1.973377
 H    -2.059232     0.691693    -1.643932
Ir    -2.325360     0.095551    -0.134964
 O     0.615656     1.504460    -0.502585
 C    -1.193107     3.429647     0.186080
 C    -0.127238     1.662085     2.142476
 O     0.464851    -1.558153     0.425268
 C    -1.309892    -3.258985    -0.759136
 C     0.061117    -1.299391    -2.294227
 P    -0.790168    -1.511077    -0.701114
 P    -0.772264     1.674691     0.437569
 C    -2.689172    -0.602807     1.614860
 O    -2.887012    -1.025080     2.665093
 C     1.764975     2.217952    -0.313891
 C     2.748494     1.746186     0.558531
 H     2.571266     0.819136     1.106375
 C     1.993920     3.384396    -1.045123
 H     1.230914     3.728901    -1.745763
 C     3.941788     2.448279     0.701634
 H     4.706014     2.064126     1.383136
 C     3.192707     4.076015    -0.890623
 H     3.362413     4.985289    -1.474102
 C     4.186190     3.627825    -0.012297
 C     5.462547     4.396060     0.174124
 H     5.375875     5.112643     1.008232
 H     5.721690     4.972733    -0.725538
 H     6.305115     3.728277     0.405903
 H    -2.052161     3.660866     0.832958
 H    -0.356465     4.103636     0.424390
 H    -1.506162     3.567774    -0.858141
 H     0.650893     2.419853     2.315293
 H    -0.978194     1.847452     2.814907
 H     0.268037     0.658238     2.352834
 C     1.593574    -2.315041     0.287157
 C     2.699474    -1.810021    -0.400609
 H     2.637704    -0.817180    -0.849017
 C     1.672387    -3.570921     0.890927
 H     0.812220    -3.944807     1.449705
 C     3.865096    -2.565699    -0.487958
 H     4.725633    -2.154912    -1.023570
 C     2.845487    -4.315098     0.794683
 H     2.896443    -5.294678     1.278342
 C     3.961092    -3.832719     0.100310
 C     5.211409    -4.654059    -0.027395
 H     6.107118    -4.018605    -0.086398
 H     5.189149    -5.271451    -0.941250
 H     5.333974    -5.337942     0.824953
 H    -0.477558    -3.938520    -0.997819
 H    -1.750237    -3.532692     0.210093
 H    -2.092563    -3.346953    -1.526977
 H     0.498689    -0.292017    -2.310495
 H     0.833551    -2.062466    -2.468145
 H    -0.706605    -1.358546    -3.079310
