 106
scf done:    -2983.144854
 C     1.342135    -1.622133    -2.831338
 H     2.391438    -1.395904    -3.050395
 H     1.169176    -2.685610    -2.647701
 C     0.315219    -0.841170    -3.468467
 H     0.607012    -0.036941    -4.153320
 H    -0.616732    -1.334661    -3.750917
 H    -0.754514    -1.500403    -1.269946
Ir     0.404045    -0.353793    -1.373643
 C    -0.146784    -2.392510     1.465857
 C     2.525199    -2.571025     0.503571
 C     1.773053    -0.229380     2.052471
 C    -0.884537     2.741487    -0.427382
 C    -2.942284     1.012497    -1.597932
 C    -2.025128     0.360187     1.005010
 P    -1.358031     0.965456    -0.604122
 P     1.153480    -1.316166     0.662633
 C     1.576365     1.093780    -1.802746
 O     2.174397     1.986453    -2.221414
 C    -0.788116    -2.165825     2.705474
 O    -0.341696    -1.144328     3.467799
 C    -0.986583    -0.824941     4.668935
 H    -0.440445     0.028388     5.092265
 H    -2.037443    -0.531383     4.504611
 H    -0.948696    -1.658579     5.390992
 C    -0.645050    -3.463720     0.685740
 O    -0.000491    -3.727220    -0.463405
 C    -0.670127    -4.429665    -1.479827
 H    -0.036818    -4.362369    -2.372723
 H    -1.647872    -3.971025    -1.700519
 H    -0.804441    -5.493921    -1.220990
 C    -1.755717    -4.218435     1.083056
 H    -2.132593    -5.017788     0.447459
 C    -1.879020    -2.940677     3.120434
 H    -2.358518    -2.746960     4.078302
 C    -2.361889    -3.951707     2.300381
 H    -3.221300    -4.544894     2.621262
 H     2.223584    -3.194343    -0.349921
 H     2.482516    -3.209638     1.399243
 C     3.920154    -2.045826     0.319040
 C     4.953418    -2.525186     1.132453
 H     4.725334    -3.265728     1.904782
 C     4.235897    -1.100593    -0.665417
 H     3.437304    -0.709632    -1.296074
 C     6.262628    -2.072823     0.974479
 H     7.053157    -2.463202     1.620594
 C     5.538704    -0.637659    -0.816915
 H     5.754800     0.116847    -1.576853
 C     6.559514    -1.122296     0.000612
 H     7.582421    -0.757368    -0.119816
 H     2.041809    -0.878513     2.896993
 H     0.893079     0.347315     2.357304
 C     2.888344     0.722052     1.736997
 C     2.649799     1.864961     0.966980
 H     1.649068     2.039045     0.574295
 C     4.170889     0.532924     2.264007
 H     4.374121    -0.346779     2.878282
 C     3.670403     2.771429     0.691311
 H     3.456642     3.644619     0.070456
 C     5.193030     1.438731     1.997060
 H     6.190505     1.261643     2.405999
 C     4.949413     2.558312     1.201449
 H     5.754452     3.264775     0.984598
 C    -0.664239     3.480074    -1.610360
 O    -0.953187     2.846526    -2.763342
 C    -0.452159     3.342695    -3.976277
 H    -0.673374     2.580404    -4.734020
 H    -0.941140     4.288393    -4.267121
 H     0.638605     3.490268    -3.921126
 C    -0.478655     3.335495     0.786800
 O    -0.576632     2.574698     1.896046
 C    -0.166761     3.088342     3.133196
 H    -0.348277     2.294682     3.868826
 H    -0.753683     3.977496     3.419835
 H     0.907911     3.337243     3.130157
 C     0.031731     4.638301     0.825003
 H     0.331904     5.087647     1.769967
 C    -0.147406     4.779449    -1.580932
 H     0.005356     5.335758    -2.504549
 C     0.184267     5.349337    -0.359127
 H     0.588124     6.363826    -0.328615
 H    -2.714216     1.575784    -2.508697
 H    -3.681272     1.578821    -1.011052
 C    -3.445311    -0.360011    -1.928619
 C    -4.206859    -1.105203    -1.019147
 H    -4.494975    -0.658600    -0.065385
 C    -3.135029    -0.942936    -3.162609
 H    -2.558849    -0.364920    -3.887590
 C    -4.608213    -2.405779    -1.317871
 H    -5.194750    -2.969852    -0.588362
 C    -3.541562    -2.238629    -3.469772
 H    -3.285280    -2.671031    -4.440362
 C    -4.271598    -2.981709    -2.542076
 H    -4.590709    -3.999790    -2.779234
 H    -1.182931     0.389935     1.706449
 H    -2.192534    -0.706717     0.791175
 C    -3.249882     0.938236     1.657085
 C    -4.056369     0.083300     2.424255
 H    -3.790945    -0.976398     2.485608
 C    -3.618871     2.285975     1.572877
 H    -3.023721     2.973635     0.970138
 C    -5.180460     0.558112     3.096550
 H    -5.791320    -0.130448     3.686075
 C    -4.746630     2.762930     2.239878
 H    -5.015479     3.818721     2.153113
 C    -5.530476     1.904699     3.008416
 H    -6.414546     2.281013     3.528489
