  96
scf done:    -2976.551202
 C     0.579960    -4.355363    -0.097749
 H     1.268633    -4.776465    -0.836287
 H     0.894149    -4.518566     0.936627
 C    -0.818714    -4.277855    -0.403174
 H    -1.174780    -4.645604    -1.370408
 H    -1.553345    -4.376773     0.400569
 H    -0.338683    -2.280668     1.116063
Ir     0.036619    -2.297137    -0.475572
 O     2.096299    -0.696458     1.692915
 O     3.277041    -1.622933    -0.278790
 O     1.814859     0.489038    -0.565161
 O    -2.052840    -0.179628    -2.023110
 O    -3.109596    -1.347926    -0.011716
 O    -1.453346     0.520802     0.378368
 P    -1.653866    -0.812423    -0.555813
 P     1.808118    -1.023588     0.098244
 C     0.424066    -2.395283    -2.373000
 O     0.637288    -2.441883    -3.495280
 C     1.118844    -0.317078     2.582404
 C     0.725181    -1.227873     3.561421
 H     1.170597    -2.223958     3.564557
 C     0.562821     0.959745     2.530165
 H     0.861590     1.653154     1.743154
 C    -0.225849    -0.848641     4.506076
 H    -0.533811    -1.560084     5.275983
 C    -0.391356     1.326733     3.475956
 H    -0.837271     2.322532     3.424689
 C    -0.784644     0.429313     4.467387
 H    -1.529741     0.724844     5.209478
 C     4.518913    -1.080714    -0.014802
 C     5.045392    -1.087453     1.272840
 H     4.465746    -1.522076     2.086882
 C     5.251275    -0.554278    -1.075772
 H     4.823345    -0.576950    -2.078962
 C     6.291404    -0.506487     1.499115
 H     6.697731    -0.500779     2.514342
 C     6.491041     0.022942    -0.831389
 H     7.050753     0.454686    -1.665585
 C     7.028294     0.073189     0.461505
 C     8.340012     0.754836     0.722395
 H     8.782367     0.430760     1.675148
 H     8.210548     1.849266     0.774920
 H     9.067616     0.552645    -0.077830
 C     2.813816     1.434457    -0.615687
 C     3.087215     1.996601    -1.859967
 H     2.514806     1.660491    -2.726896
 C     3.516868     1.854379     0.513494
 H     3.302266     1.416515     1.487263
 C     4.096186     2.948282    -1.980747
 H     4.310884     3.376238    -2.963893
 C     4.529344     2.796577     0.370564
 H     5.093258     3.100316     1.256726
 C     4.848069     3.354131    -0.873464
 C     5.982767     4.326641    -1.012996
 H     5.897439     4.919860    -1.934596
 H     6.950324     3.797837    -1.050307
 H     6.026502     5.022545    -0.161889
 C    -3.320423     0.116354    -2.469101
 C    -3.747064     1.441944    -2.524296
 H    -3.078655     2.237424    -2.194013
 C    -4.150575    -0.920035    -2.896750
 H    -3.787733    -1.947783    -2.845617
 C    -5.028631     1.724211    -2.993553
 H    -5.366037     2.762615    -3.031220
 C    -5.429646    -0.625136    -3.361977
 H    -6.082974    -1.436921    -3.690176
 C    -5.875559     0.696419    -3.406765
 H    -6.880292     0.924366    -3.769412
 C    -3.916206    -0.715133     0.905285
 C    -5.125145    -0.161736     0.493041
 H    -5.411932    -0.216605    -0.557937
 C    -3.524518    -0.644301     2.241331
 H    -2.564085    -1.063889     2.545805
 C    -5.938441     0.473220     1.429181
 H    -6.882858     0.913637     1.097873
 C    -4.347025    -0.000666     3.160010
 H    -4.024928     0.065128     4.202854
 C    -5.567253     0.570661     2.775204
 C    -6.459553     1.238185     3.781367
 H    -7.110085     1.988324     3.308940
 H    -5.876632     1.738485     4.568702
 H    -7.114816     0.503533     4.278889
 C    -1.672488     1.840310     0.084574
 C    -2.723186     2.517538     0.698948
 H    -3.385123     1.980143     1.378909
 C    -0.811868     2.507901    -0.785898
 H     0.011250     1.957702    -1.242531
 C    -2.919579     3.866899     0.415175
 H    -3.752827     4.391710     0.890632
 C    -1.026800     3.855525    -1.058760
 H    -0.351827     4.370756    -1.747752
 C    -2.083887     4.560535    -0.468524
 C    -2.289188     6.021226    -0.748462
 H    -3.329730     6.324960    -0.564361
 H    -2.039270     6.271417    -1.790051
 H    -1.646658     6.642496    -0.102109
