  98
scf done:    -3523.556492
 C    -0.103148     3.189663    -1.940816
 H    -0.629779     3.107956    -2.896887
 H    -0.599644     3.845862    -1.219731
 C     1.327318     3.075434    -1.912658
 H     1.869507     2.914161    -2.849529
 H     1.894379     3.647638    -1.173858
 H     0.521829     2.130847     0.315208
Ir     0.443437     1.289715    -1.082816
 C    -2.555967     1.597716     0.726371
 O    -2.464505     0.158935    -1.705657
 O    -1.689618    -0.955314     0.472909
 C     1.691224    -1.501320     0.878149
 O     3.025297    -0.708240    -1.329238
 O     3.163460     0.711447     0.808844
 P     2.044434    -0.030028    -0.161186
 P    -1.572730     0.493774    -0.358867
 C     0.429662     0.313593    -2.750685
 O     0.440234    -0.314798    -3.708910
 C    -1.939959     1.883640     1.962690
 O    -0.842373     1.159602     2.223755
 C    -0.011243     1.486319     3.303228
 H     0.894033     0.877533     3.186044
 H     0.265208     2.553758     3.284745
 H    -0.495305     1.250963     4.266848
 C    -3.749623     2.267898     0.404343
 O    -4.354388     1.931108    -0.748498
 C    -5.566238     2.546665    -1.091466
 H    -5.889677     2.088806    -2.033723
 H    -5.444305     3.633196    -1.238753
 H    -6.342960     2.370743    -0.327858
 C    -4.280333     3.225027     1.280621
 H    -5.199528     3.753613     1.034515
 C    -2.465405     2.834625     2.840145
 H    -1.982711     3.043075     3.793942
 C    -3.631552     3.498678     2.479101
 H    -4.055361     4.244602     3.155564
 C    -3.542220    -0.610264    -2.014372
 C    -4.424377    -0.096342    -2.969210
 H    -4.223895     0.896873    -3.372742
 C    -3.740212    -1.899795    -1.514167
 H    -3.034296    -2.316208    -0.798438
 C    -5.513963    -0.844712    -3.399201
 H    -6.209405    -0.460181    -4.147748
 C    -4.838733    -2.648334    -1.935076
 H    -5.014534    -3.653741    -1.548244
 C    -5.716651    -2.113464    -2.866743
 F    -6.766230    -2.831835    -3.269644
 C    -2.434987    -1.212607     1.590246
 C    -1.773212    -1.740357     2.699318
 H    -0.697280    -1.901435     2.639875
 C    -3.812662    -0.989659     1.637038
 H    -4.332316    -0.583659     0.768882
 C    -2.482519    -2.048516     3.854797
 H    -1.985140    -2.466426     4.732012
 C    -4.525206    -1.287666     2.797251
 H    -5.601410    -1.117846     2.858228
 C    -3.852657    -1.812360     3.892139
 F    -4.534026    -2.099336     5.003342
 C     2.015938    -1.708507     2.235541
 O     2.614606    -0.706418     2.905061
 C     3.067061    -0.915886     4.213300
 H     3.579413     0.007390     4.512448
 H     2.235279    -1.107879     4.913992
 H     3.781526    -1.754799     4.268820
 C     1.006771    -2.533777     0.197741
 O     0.712333    -2.276986    -1.084076
 C     0.002815    -3.212301    -1.851271
 H    -0.157550    -2.744373    -2.829840
 H    -0.974926    -3.444501    -1.399330
 H     0.580206    -4.143496    -1.980372
 C     0.693048    -3.744532     0.822211
 H     0.174594    -4.533699     0.280833
 C     1.709607    -2.926883     2.860280
 H     1.974014    -3.094540     3.902826
 C     1.062482    -3.928932     2.147046
 H     0.829415    -4.873520     2.643660
 C     3.799326    -1.820825    -1.168586
 C     3.727545    -2.798677    -2.161611
 H     3.058128    -2.631396    -3.007057
 C     4.644310    -1.992758    -0.069390
 H     4.693176    -1.218889     0.698344
 C     4.496489    -3.954064    -2.059908
 H     4.461402    -4.732338    -2.824460
 C     5.408315    -3.152277     0.038050
 H     6.074247    -3.315213     0.887341
 C     5.324614    -4.119274    -0.955655
 F     6.057444    -5.229679    -0.850049
 C     3.632641     1.964653     0.522549
 C     3.335615     3.005298     1.400082
 H     2.709302     2.797851     2.268246
 C     4.415769     2.195535    -0.609029
 H     4.623737     1.371316    -1.292708
 C     3.825428     4.284862     1.153017
 H     3.606243     5.119669     1.820930
 C     4.905665     3.473606    -0.861320
 H     5.515810     3.684703    -1.741143
 C     4.603974     4.502910     0.022360
 F     5.073871     5.727787    -0.217595
