 108
scf done:    -2761.083200
 C     0.081226    -3.144733    -2.630777
 H     0.413896    -3.018391    -3.666719
 H     0.732867    -3.799150    -2.043493
 C    -1.331173    -3.137612    -2.348136
 H    -2.035645    -3.004811    -3.176165
 H    -1.713633    -3.773705    -1.543904
 H    -0.152474    -2.234146    -0.290967
Ir    -0.439131    -1.320925    -1.613585
 C     1.758254    -0.330254     0.910596
 C     3.012605    -1.064196    -1.649396
 C     1.690671     1.551669    -1.354490
 C    -2.097357     1.516189    -0.165804
 C    -3.820170    -0.571137    -0.984918
 C    -2.231729    -0.871880     1.451026
 P    -2.088284    -0.318918    -0.313771
 P     1.499676    -0.258721    -0.900015
 C    -0.688728    -0.337419    -3.238128
 O    -0.805036     0.248069    -4.224970
 C     1.081879     0.576536     1.737147
 H     0.447436     1.350642     1.304291
 C     2.531875    -1.328861     1.507247
 H     3.013919    -2.086545     0.886928
 C     1.220576     0.500538     3.119376
 H     0.692479     1.217082     3.753236
 C     2.701675    -1.404352     2.894523
 C     3.616991    -2.431219     3.495826
 H     3.678134    -3.334924     2.872782
 H     4.640152    -2.030064     3.593583
 H     3.288060    -2.730898     4.501433
 C     2.033501    -0.473546     3.696435
 H     2.146545    -0.516764     4.783115
 H     3.017359    -2.091608    -1.255658
 H     2.725565    -1.160805    -2.707240
 C     4.342357    -0.388116    -1.517808
 C     4.756958     0.538170    -2.484144
 H     4.136234     0.712861    -3.367084
 C     5.191915    -0.627529    -0.429585
 H     4.904228    -1.362884     0.323026
 C     5.956021     1.230470    -2.335518
 H     6.261946     1.954019    -3.094817
 C     6.399389     0.056043    -0.263291
 C     7.256963    -0.190896     0.943749
 H     7.048745     0.555394     1.728537
 H     7.067135    -1.183545     1.376740
 H     8.327551    -0.119997     0.701988
 C     6.768756     1.000331    -1.228790
 H     7.708717     1.548047    -1.118675
 H     2.370903     1.554014    -2.220636
 H     0.703114     1.855557    -1.724592
 C     2.157714     2.526512    -0.312256
 C     1.294436     3.542769     0.114548
 H     0.302363     3.629864    -0.332079
 C     3.418774     2.429693     0.280864
 H     4.100146     1.638049    -0.032692
 C     1.685366     4.424486     1.118145
 H     0.999984     5.212197     1.442295
 C     3.825241     3.303281     1.293331
 C     5.172194     3.130783     1.934061
 H     5.950472     2.947223     1.177842
 H     5.460469     4.014090     2.521520
 H     5.169559     2.262701     2.614471
 C     2.941603     4.304746     1.709132
 H     3.242400     4.996144     2.501293
 C    -1.995009     2.258657    -1.352005
 H    -1.842825     1.747697    -2.305160
 C    -2.282813     2.198905     1.037802
 H    -2.383700     1.644682     1.973161
 C    -2.113683     3.643823    -1.325078
 H    -2.050342     4.212068    -2.256179
 C    -2.370477     3.597408     1.086067
 C    -2.525995     4.297939     2.403710
 H    -3.255126     3.782978     3.047043
 H    -1.566789     4.319926     2.947478
 H    -2.857428     5.337678     2.273114
 C    -2.299884     4.310577    -0.113137
 H    -2.381847     5.400783    -0.098027
 H    -3.758263    -0.232933    -2.030312
 H    -3.963081    -1.661413    -1.017986
 C    -4.908576     0.136242    -0.236672
 C    -5.612452    -0.489292     0.802483
 H    -5.424776    -1.539643     1.034758
 C    -5.205678     1.474049    -0.519733
 H    -4.674234     1.973961    -1.333277
 C    -6.558948     0.215499     1.540735
 H    -7.101806    -0.286748     2.345217
 C    -6.143613     2.202198     0.218414
 C    -6.392940     3.647579    -0.102348
 H    -5.468527     4.236289     0.011476
 H    -6.728665     3.773679    -1.143840
 H    -7.158794     4.082450     0.555052
 C    -6.817421     1.555540     1.258810
 H    -7.556262     2.105220     1.848344
 H    -1.444140    -0.329472     1.993212
 H    -3.207604    -0.534876     1.836726
 C    -2.034531    -2.346250     1.645181
 C    -3.010501    -3.280353     1.278774
 H    -3.963662    -2.945774     0.867366
 C    -0.828351    -2.816304     2.170865
 H    -0.057188    -2.094555     2.452474
 C    -2.773634    -4.643412     1.428229
 H    -3.543248    -5.362847     1.138141
 C    -0.571029    -4.182325     2.323563
 C     0.755635    -4.647048     2.848469
 H     1.540155    -4.519941     2.084217
 H     1.066229    -4.063228     3.727505
 H     0.731529    -5.709469     3.129430
 C    -1.560633    -5.093676     1.944357
 H    -1.379231    -6.166217     2.055590
