  96
scf done:    -2452.583680
 C     0.218805     0.076113    -3.448744
 H    -0.556956     0.301887    -4.188123
 H     0.958199     0.875787    -3.366109
 C     0.644426    -1.296089    -3.304231
 H     0.212478    -2.066939    -3.949955
 H     1.693779    -1.498560    -3.060662
 H    -0.795426    -2.079816    -0.606197
Ir    -0.579455    -0.776974    -1.593954
 C     2.053526    -2.312583     0.210054
 O     2.706063    -0.061808    -0.888391
 O     1.036704     0.044842     1.098827
 C    -1.822014     0.488594     1.525522
 O    -1.438057     2.317604    -0.284116
 O    -3.330763     0.639251    -0.723461
 P    -1.745758     0.698386    -0.286780
 P     1.323563    -0.725022    -0.309711
 C    -2.141620    -1.401211    -2.463577
 O    -3.086226    -1.828264    -2.950356
 C     1.246977    -3.234777     0.887418
 H     0.187797    -3.015895     1.042744
 C     3.401134    -2.605846    -0.009977
 H     4.021114    -1.877252    -0.535353
 C     1.797410    -4.424996     1.347074
 H     1.171071    -5.142556     1.882552
 C     3.961922    -3.811897     0.429950
 C     5.400564    -4.130051     0.142378
 H     5.800369    -4.871327     0.848951
 H     5.514213    -4.546570    -0.872345
 H     6.029696    -3.229367     0.195114
 C     3.143313    -4.711924     1.117728
 H     3.564773    -5.655158     1.476523
 C     2.733570     1.221951    -1.497670
 H     3.098949     1.080897    -2.528626
 H     1.712582     1.630513    -1.555403
 C     3.640291     2.166269    -0.738725
 H     3.670396     3.118882    -1.296246
 H     3.179821     2.400625     0.234125
 C     5.053134     1.640556    -0.532796
 H     5.506130     1.422342    -1.516237
 H     4.996979     0.672423    -0.007679
 C     5.938371     2.600886     0.244272
 H     6.022993     3.573526    -0.266923
 H     5.530192     2.793826     1.249588
 H     6.956290     2.202801     0.372057
 C     1.686460    -0.133360     2.350376
 H     0.877480    -0.259387     3.089296
 H     2.285429    -1.058038     2.343421
 C     2.547914     1.061395     2.701426
 H     3.006011     0.868629     3.687662
 H     3.383834     1.123389     1.984082
 C     1.777648     2.373517     2.729311
 H     0.986206     2.305581     3.494593
 H     1.243882     2.485646     1.771333
 C     2.650873     3.589095     2.989398
 H     3.175785     3.511042     3.955285
 H     3.419503     3.706438     2.208347
 H     2.057762     4.516143     3.006098
 C    -1.752995     1.556962     2.424904
 H    -1.628708     2.571296     2.043640
 C    -1.965291    -0.813201     2.009113
 H    -2.000364    -1.638882     1.291980
 C    -1.834093     1.307684     3.792742
 H    -1.783027     2.138931     4.500683
 C    -2.043002    -1.077967     3.380469
 C    -2.174413    -2.490840     3.871072
 H    -2.311607    -2.531003     4.960669
 H    -3.031099    -2.997521     3.400316
 H    -1.275691    -3.079125     3.623400
 C    -1.977295     0.003641     4.266006
 H    -2.036244    -0.179840     5.342522
 C    -1.355275     3.009435    -1.520859
 H    -0.746596     2.416954    -2.228846
 H    -2.365849     3.103852    -1.955710
 C    -0.753288     4.373830    -1.267567
 H    -0.837531     4.969924    -2.192658
 H    -1.368554     4.888976    -0.508970
 C     0.696025     4.316945    -0.808501
 H     1.311302     3.909980    -1.628993
 H     0.772438     3.591568     0.017368
 C     1.255268     5.657826    -0.366108
 H     1.209574     6.403634    -1.176227
 H     0.687321     6.063757     0.486598
 H     2.306596     5.570929    -0.051254
 C    -4.355832     1.363731    -0.061895
 H    -4.038540     1.637861     0.959297
 H    -4.541873     2.300430    -0.615125
 C    -5.605311     0.511737    -0.009564
 H    -6.419858     1.123331     0.417426
 H    -5.907233     0.263188    -1.041772
 C    -5.430555    -0.767201     0.797249
 H    -5.109840    -0.508575     1.822091
 H    -4.599860    -1.344268     0.359365
 C    -6.685333    -1.622631     0.844044
 H    -7.527657    -1.079509     1.302920
 H    -7.000447    -1.923103    -0.168156
 H    -6.526669    -2.542343     1.427574
