  80
scf done:    -2915.383417
 C    -0.292112    -3.450488    -1.209430
 H    -0.735168    -4.158372    -0.501477
 H    -0.866882    -3.346280    -2.134228
 C     1.135202    -3.291008    -1.243938
 H     1.747656    -3.894269    -0.565029
 H     1.628597    -3.070448    -2.195203
 H     0.132259    -1.026502    -1.908304
Ir     0.226888    -1.543154    -0.350856
 O    -2.038880     0.708868    -1.258326
 C    -3.225825    -1.551472    -0.348235
 C    -2.170687     0.398060     1.467265
 O     2.179925     0.677478     1.352310
 C     3.357404    -0.043043    -1.002583
 C     1.214705     1.823780    -0.831517
 P     1.731452     0.189645    -0.208545
 P    -1.783599    -0.466813    -0.088886
 C     0.343026    -2.242943     1.429446
 O     0.396799    -2.663999     2.497308
 C    -2.889329     1.770814    -1.100098
 C    -2.432992     2.918882    -0.449849
 H    -1.416866     2.934212    -0.053593
 C    -4.186348     1.716995    -1.611046
 H    -4.527992     0.812108    -2.114969
 C    -3.279560     4.014113    -0.310645
 H    -2.917646     4.911023     0.197384
 C    -5.027533     2.819751    -1.464700
 H    -6.043021     2.777540    -1.865905
 C    -4.580090     3.968460    -0.814039
 H    -5.242970     4.829276    -0.702414
 C    -3.785634    -2.281103     0.707279
 H    -3.434123    -2.123093     1.730038
 C    -3.671269    -1.791362    -1.654029
 H    -3.214783    -1.248104    -2.484788
 C    -4.791018    -3.214258     0.470500
 H    -5.242311    -3.787902     1.281961
 C    -4.678687    -2.717873    -1.902737
 H    -5.041395    -2.913758    -2.913397
 C    -5.227905    -3.416513    -0.833353
 F    -6.191690    -4.303876    -1.064558
 C    -3.481188     0.767990     1.808558
 H    -4.316864     0.475154     1.169609
 C    -1.112504     0.800092     2.291721
 H    -0.085085     0.533200     2.032870
 C    -3.731304     1.520378     2.949082
 H    -4.742592     1.822215     3.226400
 C    -1.350373     1.555075     3.436329
 H    -0.535905     1.874086     4.088814
 C    -2.658361     1.905532     3.747358
 F    -2.893816     2.628361     4.836951
 C     3.352705     0.298415     1.949867
 C     4.509651     1.052118     1.742675
 H     4.467213     1.925823     1.090508
 C     3.379907    -0.822040     2.780116
 H     2.465555    -1.392782     2.943691
 C     5.699523     0.671883     2.357080
 H     6.604494     1.260203     2.187955
 C     4.575941    -1.192204     3.393308
 H     4.595313    -2.070068     4.043507
 C     5.738500    -0.453157     3.180755
 H     6.673980    -0.750731     3.659439
 C     4.038638     0.985728    -1.663961
 H     3.570881     1.966000    -1.778830
 C     3.970490    -1.295277    -0.868585
 H     3.427034    -2.100707    -0.369179
 C     5.313850     0.772537    -2.178301
 H     5.859555     1.557797    -2.704413
 C     5.251193    -1.515445    -1.361072
 H     5.749002    -2.480835    -1.256539
 C     5.905426    -0.474528    -2.010744
 F     7.127443    -0.678887    -2.492285
 C     1.417875     2.990615    -0.085915
 H     1.870342     2.920809     0.904521
 C     0.616011     1.913739    -2.095161
 H     0.420768     1.004093    -2.666349
 C     1.039339     4.231769    -0.594884
 H     1.183189     5.151911    -0.025663
 C     0.246011     3.147514    -2.616775
 H    -0.229311     3.235271    -3.594932
 C     0.462239     4.292540    -1.857130
 F     0.095471     5.473329    -2.345677
