  80
scf done:    -4356.495269
 C    -0.287511    -3.580730    -0.954464
 H    -0.806679    -4.220841    -0.233935
 H    -0.790937    -3.522064    -1.923730
 C     1.142925    -3.471011    -0.895735
 H     1.683696    -4.043311    -0.134259
 H     1.709004    -3.332921    -1.821704
 H     0.281852    -1.221982    -1.779625
Ir     0.240913    -1.634755    -0.189544
 O    -1.888738     0.579369    -1.435419
 C    -3.205108    -1.545930    -0.386268
 C    -2.191461     0.538606     1.294544
 O     2.191060     0.607020     1.492459
 C     3.445850    -0.260962    -0.769035
 C     1.349772     1.666256    -0.783622
 P     1.793860     0.052570    -0.057960
 P    -1.743457    -0.482293    -0.148650
 C     0.204216    -2.213546     1.638164
 O     0.169226    -2.560205     2.732839
 C    -2.721228     1.667685    -1.459060
 C    -2.304746     2.860368    -0.865309
 H    -1.343815     2.889023    -0.350911
 C    -3.951973     1.595418    -2.111549
 H    -4.263821     0.655578    -2.568507
 C    -3.118582     3.986471    -0.935289
 H    -2.781322     4.920605    -0.480607
 C    -4.763996     2.727840    -2.169762
 H    -5.727195     2.671911    -2.682600
 C    -4.351777     3.924175    -1.584723
 H    -4.989681     4.809084    -1.638132
 C    -3.574269    -1.912863    -1.685879
 H    -3.044553    -1.479823    -2.537787
 C    -3.860820    -2.137612     0.699166
 H    -3.572907    -1.880266     1.721676
 C    -4.598358    -2.828281    -1.902689
 H    -4.892414    -3.112188    -2.914424
 C    -4.883792    -3.058806     0.494462
 H    -5.400784    -3.517748     1.338634
 C    -5.251232    -3.394952    -0.807825
Cl    -6.526779    -4.534448    -1.069291
 C    -1.176880     0.961258     2.160657
 H    -0.149632     0.621142     2.009042
 C    -3.500615     0.998475     1.502185
 H    -4.304205     0.689329     0.830262
 C    -1.455568     1.827335     3.213820
 H    -0.664933     2.156630     3.889562
 C    -3.791164     1.862580     2.550371
 H    -4.806390     2.228291     2.710229
 C    -2.762509     2.274576     3.399434
Cl    -3.117275     3.356610     4.700258
 C     3.316875     0.204142     2.162785
 C     4.513267     0.900100     1.980842
 H     4.537414     1.748383     1.295058
 C     3.256947    -0.882175     3.035265
 H     2.311615    -1.405607     3.179435
 C     5.656991     0.494334     2.662791
 H     6.593739     1.036185     2.512875
 C     4.407410    -1.278102     3.715979
 H     4.359333    -2.129221     4.399365
 C     5.609739    -0.598226     3.528659
 H     6.509267    -0.916422     4.060047
 C     4.016244    -1.520900    -0.553976
 H     3.429567    -2.290018    -0.046293
 C     4.185482     0.719009    -1.440297
 H     3.753339     1.706248    -1.618704
 C     5.311886    -1.795345    -0.975324
 H     5.765316    -2.771622    -0.798430
 C     5.476389     0.450314    -1.884186
 H     6.056781     1.207233    -2.414030
 C     6.034646    -0.804176    -1.639285
Cl     7.645384    -1.137230    -2.174034
 C     1.495433     2.858133    -0.066019
 H     1.879562     2.825602     0.954771
 C     0.846924     1.710917    -2.090026
 H     0.698725     0.782942    -2.646006
 C     1.142762     4.078177    -0.639707
 H     1.241119     5.009357    -0.079455
 C     0.503510     2.923626    -2.675141
 H     0.096726     2.961251    -3.686440
 C     0.646152     4.101805    -1.941231
Cl     0.156463     5.606235    -2.639681
