  82
scf done:    -2145.073767
 C     0.313329    -3.459368    -1.258862
 H     1.253273    -3.752841    -1.736864
 H     0.049503    -4.087206    -0.402210
 C    -0.737803    -2.923943    -2.077715
 H    -0.561826    -2.815502    -3.153147
 H    -1.777579    -3.159307    -1.832791
 H    -0.972108    -1.856872     0.256960
Ir     0.105628    -1.344833    -0.863793
 O     0.548438    -1.024185     2.484660
 C     2.393412    -2.567872     1.474810
 C     2.476902     0.457078     1.220016
 O    -1.084885     1.946240    -0.473204
 C    -1.667254     0.873517    -2.932230
 C    -3.005077     0.223284    -0.282456
 P    -1.376203     0.413606    -1.143002
 P     1.408374    -1.056201     1.042563
 C     1.353553    -0.817624    -2.213244
 O     2.085235    -0.514274    -3.050273
 C    -0.671468    -0.459603     2.686923
 C    -1.760210    -1.289255     2.960775
 H    -1.612643    -2.370149     2.940676
 C    -0.842360     0.924375     2.691562
 H     0.003727     1.572773     2.462319
 C    -3.002848    -0.732703     3.247162
 H    -3.848833    -1.394412     3.453103
 C    -2.092205     1.467523     2.977196
 H    -2.215742     2.554077     2.965317
 C    -3.195459     0.655156     3.261537
 C    -4.536203     1.249585     3.582019
 H    -5.355984     0.592826     3.255615
 H    -4.669019     2.226948     3.095700
 H    -4.655455     1.404522     4.667591
 H     1.574083    -3.308814     1.460658
 C     3.388450    -2.955098     0.386294
 H     3.680159    -4.010218     0.505589
 H     2.960327    -2.834939    -0.618444
 H     4.307102    -2.354172     0.443982
 C     3.023835    -2.579699     2.861554
 H     2.316910    -2.245943     3.632870
 H     3.347102    -3.603113     3.111790
 H     3.917129    -1.939286     2.904857
 H     1.785922     1.238650     0.863294
 C     2.900565     0.814182     2.639502
 H     3.267583     1.853130     2.656859
 H     2.069669     0.734477     3.353599
 H     3.714053     0.169822     3.001105
 C     3.661044     0.435728     0.260383
 H     3.372998     0.146141    -0.759771
 H     4.100775     1.442865     0.200260
 H     4.448454    -0.250309     0.605580
 C     0.091357     2.608180    -0.462932
 C     0.303617     3.520790     0.577501
 H    -0.489477     3.664825     1.313038
 C     1.080276     2.450752    -1.437477
 H     0.926981     1.773531    -2.276017
 C     1.500333     4.222586     0.661090
 H     1.647767     4.925415     1.486065
 C     2.273982     3.162722    -1.338793
 H     3.036942     3.014710    -2.107968
 C     2.519225     4.047626    -0.285364
 C     3.831836     4.764619    -0.156907
 H     4.529843     4.204952     0.489357
 H     3.706659     5.762063     0.289648
 H     4.321213     4.887919    -1.133821
 H    -0.665175     0.727821    -3.372261
 C    -2.599087    -0.130020    -3.604253
 H    -2.559976    -0.003342    -4.697572
 H    -2.317770    -1.167274    -3.373935
 H    -3.643398     0.023065    -3.293529
 C    -2.090560     2.314601    -3.188366
 H    -1.392415     3.038595    -2.746699
 H    -2.121241     2.497648    -4.274821
 H    -3.091421     2.527181    -2.789043
 H    -2.643017     0.242380     0.757741
 C    -3.973744     1.385825    -0.456516
 H    -4.779271     1.300976     0.290788
 H    -3.477121     2.354375    -0.311062
 H    -4.450510     1.378392    -1.448760
 C    -3.679991    -1.124534    -0.494466
 H    -2.976089    -1.951262    -0.331219
 H    -4.500856    -1.230342     0.232555
 H    -4.112159    -1.226415    -1.500266
