  84
scf done:    -2843.574627
 C    -0.752461    -0.201458    -3.529423
 H    -1.284774    -1.092119    -3.879697
 H    -1.297386     0.728935    -3.715186
 C     0.683732    -0.204962    -3.564582
 H     1.194413    -1.092432    -3.953686
 H     1.217568     0.723601    -3.788543
 H    -0.010260     1.303308    -1.638215
Ir    -0.005456    -0.332381    -1.520296
 C    -1.695701     1.363051     1.146753
 C    -3.308077     0.663053    -1.096233
 C    -2.553171    -1.336135     0.790088
 C     1.652975    -0.878662     1.560561
 C     3.393705    -0.951181    -0.676520
 C     2.490059     1.563826     0.223309
 P     1.850078    -0.126275    -0.101336
 P    -1.850682     0.072105    -0.152559
 C    -0.071409    -2.246128    -1.458707
 O    -0.128233    -3.393134    -1.422709
 C    -2.386912     1.276133     2.358943
 H    -3.028457     0.417604     2.566303
 C    -0.872124     2.469209     0.905195
 H    -0.323868     2.520870    -0.038455
 C    -2.244416     2.285706     3.309924
 H    -2.779938     2.213385     4.259833
 C    -0.721715     3.488528     1.849290
 C     0.162067     4.669651     1.576878
 H     0.671087     4.571840     0.609159
 H    -0.418769     5.605715     1.566470
 H     0.936377     4.775161     2.352369
 C    -1.418576     3.377673     3.060582
 H    -1.310386     4.160629     3.816716
 C    -3.765257    -0.127341    -2.160460
 H    -3.245233    -1.057897    -2.399172
 C    -3.968247     1.862026    -0.811777
 H    -3.627529     2.491072     0.012960
 C    -4.865418     0.258983    -2.915828
 H    -5.234399    -0.348489    -3.744101
 C    -5.063351     2.269774    -1.572782
 H    -5.584899     3.206300    -1.367299
 C    -5.499138     1.460574    -2.612690
 F    -6.546527     1.841859    -3.340084
 C    -3.931842    -1.536565     0.936573
 H    -4.636859    -0.862065     0.445983
 C    -1.669807    -2.217058     1.426868
 H    -0.592832    -2.080287     1.317390
 C    -4.420412    -2.591067     1.704280
 H    -5.491574    -2.764253     1.822675
 C    -2.144468    -3.266290     2.206113
 H    -1.460890    -3.953050     2.707736
 C    -3.517623    -3.440335     2.332950
 F    -3.979929    -4.446568     3.070989
 C     2.038577    -2.209909     1.760111
 H     2.569521    -2.751537     0.974506
 C     0.962183    -0.207896     2.579664
 H     0.633850     0.822607     2.426504
 C     1.738026    -2.847597     2.962302
 H     2.042591    -3.886124     3.113555
 C     0.662382    -0.836390     3.792270
 C    -0.105742    -0.118528     4.861645
 H    -0.013439     0.971538     4.762845
 H    -1.179218    -0.359578     4.789389
 H     0.231728    -0.412892     5.866293
 C     1.060697    -2.167477     3.970122
 H     0.833714    -2.675101     4.911676
 C     3.379417    -1.752749    -1.819786
 H     2.448246    -1.854097    -2.379073
 C     4.595389    -0.802485     0.031033
 H     4.631053    -0.176545     0.925487
 C     4.532826    -2.404466    -2.253165
 H     4.534203    -3.033677    -3.144873
 C     5.754355    -1.442914    -0.389310
 H     6.697479    -1.335697     0.149486
 C     5.705817    -2.239414    -1.530308
 F     6.813639    -2.853749    -1.935590
 C     3.048748     1.963082     1.443276
 H     3.049406     1.281495     2.296315
 C     2.509393     2.460467    -0.853217
 H     2.063624     2.156775    -1.803621
 C     3.608435     3.230416     1.591375
 H     4.040620     3.557069     2.538977
 C     3.076246     3.723850    -0.722810
 H     3.099825     4.429642    -1.555051
 C     3.617775     4.093484     0.503425
 F     4.146022     5.306717     0.641530
