 104
scf done:    -2532.656632
 C     0.457492    -1.379996    -3.551205
 H     1.236771    -2.131941    -3.714537
 H    -0.558265    -1.779062    -3.612604
 C     0.715620    -0.022121    -3.924490
 H     1.684753     0.241650    -4.357833
 H    -0.109260     0.604207    -4.273620
 H    -0.882285    -0.007968    -1.931897
Ir     0.724558    -0.203323    -1.752650
 O    -1.522654    -0.952843     0.692442
 C     0.051862    -3.089440     0.215358
 C     0.867403    -0.575148     1.727623
 O     3.053547     1.985607    -0.656269
 C    -0.902929     3.058841    -0.760391
 C    -3.871328    -1.206113     0.930574
 P     0.585450     2.012985    -1.036668
 P     0.056154    -1.241759     0.205803
 C     2.533117    -0.824179    -1.725458
 O     3.552597    -1.368947    -1.813499
 C    -2.660477    -1.344143     0.041330
 C     1.889381     2.906045    -0.470428
 H     2.776058     1.061868    -1.006501
 C    -2.716781    -1.797331    -1.195076
 H    -3.051591    -1.666089    -3.266393
 C    -2.855803     5.052907     0.980982
 H    -2.101155     5.534883     0.329427
 C    -2.876764    -2.303715    -2.391414
 H    -2.821610    -3.384713    -2.572191
 C    -4.164873     5.054926     0.237127
 H     1.056823     5.464075     1.548867
 H    -0.743053    -3.283695    -0.530053
 C    -0.372252    -3.744769     1.528565
 H    -1.303720    -3.291183     1.900880
 H     0.399482    -3.562110     2.295827
 C    -0.541772    -5.250409     1.347965
 H    -0.822922    -5.716003     2.306520
 H    -1.380236    -5.437230     0.652844
 C     0.726882    -5.889071     0.794333
 H     0.578373    -6.970098     0.640609
 H     1.535873    -5.790422     1.541141
 C     1.162371    -5.222051    -0.505826
 H     0.402873    -5.415191    -1.284966
 H     2.101996    -5.665801    -0.872209
 C     1.329320    -3.713753    -0.345484
 H     2.180693    -3.508828     0.325601
 H     1.571599    -3.252564    -1.313697
 H     0.935366     0.499088     1.465514
 C     2.300843    -1.090756     1.877284
 H     2.849429    -1.010881     0.925366
 H     2.280284    -2.163626     2.137026
 C     3.038864    -0.325041     2.970969
 H     4.057685    -0.727391     3.088010
 H     3.158750     0.725415     2.654944
 C     2.284084    -0.374370     4.294094
 H     2.809805     0.223945     5.055626
 H     2.273515    -1.414311     4.669124
 C     0.847650     0.111505     4.133075
 H     0.853660     1.183194     3.863467
 H     0.304834     0.034335     5.089132
 C     0.105947    -0.668063     3.050378
 H     0.008711    -1.720656     3.361148
 H    -0.915124    -0.282073     2.924615
 C     4.125079     1.973212     0.248398
 C     5.069890     0.963360     0.115063
 H     4.977580     0.209017    -0.668669
 C     4.205237     2.954229     1.226154
 H     3.425487     3.714150     1.275944
 C     6.132293     0.933698     1.016052
 H     6.880068     0.142353     0.930656
 C     5.283504     2.909278     2.108628
 H     5.364899     3.671960     2.886288
 C     6.242941     1.902463     2.012719
 H     7.078885     1.872549     2.714527
 H    -0.518306     4.091741    -0.817599
 C    -1.476907     2.784058     0.630521
 H    -0.737981     3.059105     1.400288
 H    -1.644049     1.697427     0.724323
 C    -2.786198     3.514401     0.877096
 H    -3.295733     3.071304     1.745363
 H    -2.808442     5.582650     1.947066
 C    -3.795762     3.686565    -0.286564
 H     1.282253     4.927588     1.049087
 H    -4.627011     2.966261    -0.380318
 C    -3.113168     3.834097    -1.666801
 H    -2.720044     4.855783    -1.804155
 H    -3.873104     3.701015    -2.450185
 C    -1.964677     2.848875    -1.838616
 H    -2.335284     1.810085    -1.784919
 H    -1.521083     2.970998    -2.839878
 H    -3.666508    -1.842513     1.814723
 C    -5.160840    -1.697768     0.279137
 H    -5.045674    -2.745834    -0.038630
 H    -5.336719    -1.115163    -0.642220
 C    -6.355188    -1.545850     1.214340
 H    -7.272895    -1.883942     0.707056
 H    -6.221746    -2.210271     2.087440
 C    -6.510939    -0.108584     1.698084
 H    -7.359953    -0.025258     2.395442
 H    -6.751323     0.540368     0.836434
 C    -5.229088     0.388513     2.355030
 H    -5.048848    -0.184834     3.282542
 H    -5.333511     1.442938     2.659076
 C    -4.028721     0.233259     1.430157
 H    -4.147355     0.891870     0.552352
 H    -3.106516     0.549422     1.938692
