 100
scf done:    -2904.735991
 C     1.119882     1.042064     3.645746
 H     1.590147     0.285241     4.280971
 H     1.769442     1.898279     3.441819
 C    -0.299813     1.239752     3.718372
 H    -0.887889     0.632746     4.413569
 H    -0.714471     2.237814     3.553477
 H     0.345789     1.768361     1.313349
Ir     0.178783     0.245066     1.866423
 C     2.892822     0.995316    -0.344340
 O     2.904471    -1.362708     1.046055
 O     1.477883    -1.038698    -1.069174
 C    -2.737996    -1.025017     0.112460
 O    -2.783395     1.468525     1.100102
 O    -1.404803     0.925962    -1.010476
 P    -1.656827     0.368430     0.534159
 P     1.824487    -0.281213     0.378775
 C     0.002440    -1.506307     2.654844
 O    -0.083067    -2.533771     3.157668
 C     3.659342     0.748053    -1.492532
 H     3.587991    -0.214339    -2.000379
 C     2.971989     2.233440     0.290863
 H     2.347297     2.415749     1.169019
 C     4.502927     1.741257    -1.972837
 H     5.109936     1.553585    -2.861764
 C     3.812359     3.244363    -0.190589
 C     3.849934     4.579508     0.491941
 H     2.864347     5.069251     0.436826
 H     4.099639     4.477099     1.559402
 H     4.588691     5.250598     0.031919
 C     4.581174     2.975920    -1.325494
 H     5.250872     3.748866    -1.713892
 C     4.063670    -1.752554     0.420789
 C     4.053373    -2.792891    -0.506149
 H     3.114260    -3.295721    -0.743129
 C     5.256888    -1.102513     0.731299
 H     5.240254    -0.282426     1.451272
 C     5.243308    -3.170941    -1.123793
 H     5.227670    -3.985074    -1.853790
 C     6.436646    -1.493858     0.107479
 H     7.367034    -0.973655     0.351664
 C     6.453945    -2.532264    -0.832124
 C     7.736852    -2.965878    -1.480593
 H     7.554833    -3.451754    -2.450052
 H     8.276394    -3.690139    -0.847319
 H     8.412690    -2.113991    -1.646941
 C     0.558683    -2.036160    -1.219954
 C     0.340260    -3.013696    -0.248699
 H     0.925883    -3.010429     0.670682
 C    -0.159636    -2.077129    -2.415352
 H     0.025871    -1.313312    -3.171371
 C    -0.622999    -3.996462    -0.465460
 H    -0.799683    -4.740510     0.315727
 C    -1.101009    -3.077578    -2.622888
 H    -1.659721    -3.094950    -3.563031
 C    -1.361155    -4.051663    -1.650686
 C    -2.371036    -5.135341    -1.888725
 H    -2.814426    -5.481530    -0.944378
 H    -1.910348    -6.009094    -2.380054
 H    -3.188445    -4.786791    -2.536609
 C    -3.038324    -1.942901     1.124276
 H    -2.539408    -1.874823     2.093239
 C    -3.378999    -1.117070    -1.123194
 H    -3.131077    -0.396845    -1.904740
 C    -3.989437    -2.930990     0.894939
 H    -4.229490    -3.648655     1.682915
 C    -4.340796    -2.103430    -1.362678
 C    -5.027573    -2.172258    -2.694719
 H    -5.549338    -1.227894    -2.916558
 H    -4.300321    -2.337557    -3.506103
 H    -5.765842    -2.985650    -2.729872
 C    -4.639945    -3.003540    -0.336165
 H    -5.391987    -3.779040    -0.506433
 C    -4.033463     1.560860     0.534171
 C    -4.233524     2.255860    -0.656244
 H    -3.391540     2.747183    -1.145633
 C    -5.106792     0.929795     1.162927
 H    -4.927805     0.384156     2.090770
 C    -5.508407     2.299805    -1.218798
 H    -5.656511     2.843012    -2.156314
 C    -6.370930     0.981490     0.588486
 H    -7.202812     0.472485     1.083420
 C    -6.596713     1.662009    -0.615768
 C    -7.969609     1.716302    -1.221457
 H    -7.941433     2.105178    -2.249197
 H    -8.637949     2.370595    -0.637669
 H    -8.436667     0.719629    -1.247849
 C    -0.604069     1.990150    -1.330201
 C    -0.667535     3.204681    -0.645755
 H    -1.346912     3.317005     0.200117
 C     0.275117     1.843115    -2.402526
 H     0.328499     0.881030    -2.910685
 C     0.151281     4.259422    -1.045745
 H     0.094117     5.206912    -0.502471
 C     1.080079     2.906938    -2.790059
 H     1.773461     2.772382    -3.624236
 C     1.034720     4.136992    -2.122125
 C     1.905483     5.278125    -2.558654
 H     1.781463     6.153578    -1.905761
 H     1.668554     5.591822    -3.587964
 H     2.968533     4.990163    -2.543661
