 100
scf done:    -2380.751617
 C    -0.158349    -3.189626    -0.501151
 H     0.741258    -3.813815    -0.454957
 H    -0.687853    -3.166087     0.458148
 C    -0.920551    -3.176255    -1.731505
 H    -0.557237    -3.775566    -2.572686
 H    -2.013354    -3.151663    -1.704391
 H    -0.473248    -0.298108    -2.735601
Ir     0.084846    -1.273115    -1.529910
 O    -2.214922     1.041108    -1.062616
 C    -3.198321    -1.388010    -0.141960
 C    -1.356547     0.214517     1.390249
 O     1.939231     0.377579     0.978004
 C     3.213398     0.273924    -1.398529
 C     0.974580     2.061253    -0.830243
 P     1.529076     0.313231    -0.670974
 P    -1.688693    -0.363066    -0.314653
 C     1.339569    -1.892960    -2.782871
 O     2.088309    -2.254833    -3.575776
 C    -3.344092     1.740876    -0.748281
 C    -3.331940     2.697525     0.269801
 H    -2.409003     2.880887     0.822393
 C    -4.502295     1.528071    -1.498665
 H    -4.476620     0.798613    -2.310124
 C    -4.495194     3.407560     0.561329
 H    -4.484366     4.151755     1.361225
 C    -5.659191     2.243112    -1.199989
 H    -6.565334     2.069903    -1.785512
 C    -5.663952     3.177042    -0.163441
 H    -6.573564     3.734487     0.069732
 H    -2.836384    -2.416408     0.022415
 H    -3.647116    -1.392156    -1.148142
 C    -4.209410    -1.017548     0.937234
 H    -3.732407    -1.118979     1.925611
 H    -4.510642     0.039123     0.849032
 C    -5.472445    -1.884843     0.923522
 H    -5.152554    -2.943159     0.969866
 C    -6.315752    -1.592307     2.159364
 H    -5.748887    -1.769160     3.086780
 H    -7.217131    -2.223543     2.189597
 H    -6.645029    -0.539782     2.164711
 C    -6.294382    -1.693498    -0.346682
 H    -7.197833    -2.322142    -0.329598
 H    -5.731268    -1.957624    -1.254530
 H    -6.615745    -0.643474    -0.445200
 H    -2.275090     0.672412     1.791315
 H    -0.603910     1.012364     1.301207
 C    -0.842520    -0.887808     2.305573
 H    -1.509606    -1.765826     2.256581
 H     0.131835    -1.233708     1.928897
 C    -0.707385    -0.478631     3.776431
 H    -1.729614    -0.332188     4.175770
 C    -0.048027    -1.609364     4.558562
 H    -0.593991    -2.557763     4.433516
 H    -0.006760    -1.383525     5.635311
 H     0.984962    -1.770394     4.207728
 C     0.055332     0.828184     3.964974
 H     0.169721     1.060105     5.035095
 H    -0.459591     1.681929     3.498427
 H     1.061369     0.760644     3.524660
 C     2.727672    -0.525444     1.618782
 C     3.524014    -0.039019     2.661301
 H     3.497587     1.029165     2.886359
 C     2.744701    -1.886898     1.301670
 H     2.100974    -2.255327     0.499620
 C     4.329815    -0.912852     3.385287
 H     4.947228    -0.524883     4.199215
 C     3.562627    -2.748897     2.030899
 H     3.570212    -3.812375     1.779395
 C     4.356388    -2.272604     3.072899
 H     4.992437    -2.956020     3.639294
 H     3.076780     0.343913    -2.490384
 H     3.576001    -0.748643    -1.207463
 C     4.205436     1.309977    -0.889528
 H     3.949098     2.296381    -1.310942
 H     4.114655     1.410150     0.205031
 C     5.666963     0.987657    -1.217573
 H     5.734788     0.786968    -2.303546
 C     6.551250     2.189146    -0.904276
 H     6.238527     3.080825    -1.470053
 H     7.605707     1.987444    -1.148181
 H     6.500644     2.439666     0.168712
 C     6.154398    -0.250701    -0.471302
 H     7.205166    -0.470604    -0.715042
 H     5.567471    -1.148553    -0.715801
 H     6.082925    -0.102713     0.619205
 H    -0.118403     2.018981    -0.955195
 H     1.359453     2.368069    -1.817378
 C     1.346419     3.055009     0.261186
 H     1.034577     2.648359     1.236190
 H     2.441032     3.168245     0.330407
 C     0.709547     4.434476     0.072705
 H    -0.383114     4.284406    -0.021849
 C     0.959513     5.301327     1.301428
 H     0.578930     4.821607     2.217066
 H     0.473205     6.284678     1.207321
 H     2.039045     5.476669     1.443682
 C     1.193576     5.130727    -1.194148
 H     0.733699     6.125206    -1.301519
 H     0.949776     4.557952    -2.101333
 H     2.287676     5.271126    -1.167864
