 126
scf done:    -3741.525186
 C    -0.628051    -1.421299    -2.747510
 H    -1.129954    -2.391832    -2.724386
 H    -1.203846    -0.645702    -3.258964
 C     0.800822    -1.372463    -2.752646
 H     1.357215    -2.314636    -2.745850
 H     1.328510    -0.566974    -3.273223
 H    -0.033570     0.665370    -1.537959
Ir     0.094094    -0.776945    -0.820664
 C    -2.308261     1.474041    -0.843048
 C    -3.509586    -1.235740    -0.577574
 C    -2.772361     0.049860     1.712195
 C     2.737636    -0.648635     1.650063
 C     3.513594    -0.404645    -1.160204
 C     2.328420     1.909595     0.205938
 P     2.170050     0.069342     0.042416
 P    -2.076594    -0.166019    -0.021023
 C     0.285396    -2.433113     0.115226
 O     0.435868    -3.398005     0.734879
 C    -1.680081     2.577407    -0.239185
 O    -1.015025     2.315313     0.897728
 C    -0.542608     3.377358     1.672393
 H    -0.017656     2.933103     2.525125
 H     0.172687     4.001899     1.119016
 H    -1.373727     4.007168     2.038081
 C    -2.888269     1.662200    -2.106431
 O    -3.372627     0.564149    -2.721449
 C    -3.980403     0.666468    -3.972006
 H    -4.306463    -0.347163    -4.238755
 H    -3.279299     1.033714    -4.742623
 H    -4.863298     1.330861    -3.951938
 C    -2.947256     2.935068    -2.693565
 H    -3.421235     3.075341    -3.664348
 C    -1.744340     3.854843    -0.808147
 H    -1.270789     4.703752    -0.317448
 C    -2.391494     4.022220    -2.028648
 H    -2.442925     5.015437    -2.481626
 C    -4.798340    -0.665075    -0.666473
 O    -4.898358     0.614695    -0.275631
 C    -6.059038     1.343468    -0.523509
 H    -5.837662     2.380112    -0.240326
 H    -6.338002     1.319168    -1.591741
 H    -6.913778     0.979890     0.074829
 C    -3.399818    -2.605621    -0.895836
 O    -2.216259    -3.211739    -0.713264
 C    -2.023741    -4.524923    -1.145201
 H    -0.972234    -4.761505    -0.940512
 H    -2.215546    -4.635911    -2.227174
 H    -2.661941    -5.239808    -0.595067
 C    -4.507032    -3.328581    -1.374350
 H    -4.403194    -4.380178    -1.635658
 C    -5.904269    -1.379504    -1.137981
 H    -6.882856    -0.906616    -1.210377
 C    -5.741214    -2.710485    -1.499783
 H    -6.596485    -3.281502    -1.869568
 C    -3.434928     1.157406     2.287223
 O    -3.622579     2.257333     1.537359
 C    -4.269524     3.373774     2.061361
 H    -4.261939     4.130399     1.264801
 H    -5.315381     3.154145     2.343346
 H    -3.748827     3.786031     2.944677
 C    -2.676090    -1.113274     2.505583
 O    -2.086385    -2.164188     1.914534
 C    -2.057334    -3.405135     2.558908
 H    -1.572854    -4.098205     1.864122
 H    -3.075686    -3.759413     2.795308
 H    -1.460229    -3.367844     3.486702
 C    -3.164838    -1.174132     3.816535
 H    -3.073332    -2.087137     4.402739
 C    -3.900966     1.111429     3.611826
 H    -4.397185     1.976756     4.048568
 C    -3.762933    -0.047661     4.362960
 H    -4.141022    -0.075642     5.387757
 C     1.832455    -0.615411     2.731010
 O     0.747980     0.158522     2.569245
 C    -0.063778     0.413073     3.679956
 H    -0.880920     1.051794     3.330545
 H    -0.508462    -0.506040     4.091319
 H     0.505137     0.923845     4.478536
 C     3.976244    -1.280678     1.869070
 O     4.928764    -1.125987     0.934219
 C     6.034197    -1.975769     0.900694
 H     6.542940    -1.781373    -0.053235
 H     5.734934    -3.038114     0.936263
 H     6.738001    -1.777512     1.729283
 C     4.225907    -2.002593     3.046356
 H     5.178045    -2.513497     3.185865
 C     2.084356    -1.313088     3.918498
 H     1.364728    -1.296677     4.735131
 C     3.271614    -2.023816     4.052648
 H     3.466980    -2.580708     4.972453
 C     4.390626     0.478456    -1.818752
 O     4.485288     1.735861    -1.351740
 C     5.091333     2.730325    -2.119107
 H     4.900758     3.678209    -1.598558
 H     6.182969     2.582682    -2.206035
 H     4.657807     2.785510    -3.133429
 C     3.630946    -1.771241    -1.493188
 O     2.969719    -2.628088    -0.694392
 C     3.014075    -4.000815    -0.952423
 H     2.410801    -4.477126    -0.171244
 H     4.046861    -4.389681    -0.908241
 H     2.583534    -4.245367    -1.939855
 C     4.431313    -2.213025    -2.551164
 H     4.474555    -3.269409    -2.811493
 C     5.183986     0.048934    -2.895313
 H     5.823337     0.757229    -3.420679
 C     5.183084    -1.287274    -3.265218
 H     5.799973    -1.619458    -4.103668
 C     1.980876     2.687722    -0.918085
 O     1.747527     2.010495    -2.049085
 C     1.016425     2.595259    -3.092107
 H     0.761582     1.780257    -3.781352
 H     0.084602     3.052986    -2.724489
 H     1.614123     3.350639    -3.633340
 C     2.795634     2.597317     1.343624
 O     3.204513     1.862122     2.390567
 C     3.615078     2.468991     3.575942
 H     3.844402     1.651074     4.272118
 H     2.821594     3.101018     4.014506
 H     4.520891     3.085547     3.435645
 C     2.849197     4.000259     1.371705
 H     3.215530     4.518276     2.256946
 C     1.985058     4.087969    -0.880932
 H     1.685922     4.660792    -1.758136
 C     2.432116     4.732061     0.266301
 H     2.464418     5.824068     0.298335
