  96
scf done:    -2603.938747
 C     0.239683    -2.785779    -3.084079
 H     0.803844    -2.581403    -4.000353
 H     0.611946    -3.657420    -2.536671
 C    -1.175055    -2.501227    -3.062305
 H    -1.645692    -2.088598    -3.960925
 H    -1.838545    -3.172420    -2.505696
 H    -0.280190    -2.213461    -0.662339
Ir    -0.128714    -1.078956    -1.835207
 C     1.431981    -0.511093     1.215694
 C     3.021169    -1.985250    -0.689443
 C     2.788119     0.872515    -1.166597
 C    -1.325989     1.962476    -0.491932
 C    -3.406062     0.212398    -1.415723
 C    -2.088509    -0.243708     1.116851
 P    -1.712606     0.169641    -0.636931
 P     1.778632    -0.598144    -0.589701
 C     0.165395     0.154917    -3.261737
 O     0.402176     0.884794    -4.121311
 C     1.405622     0.659803     1.981654
 H     1.700901     1.615282     1.555859
 C     1.002376    -1.708133     1.810397
 H     0.963121    -2.622780     1.213143
 C     0.973089     0.612148     3.307620
 H     0.961273     1.532967     3.896390
 C     0.559009    -1.768838     3.132986
 C     0.044430    -3.058854     3.700807
 H     0.661056    -3.912892     3.384182
 H     0.023907    -3.037114     4.799580
 H    -0.983830    -3.248165     3.350332
 C     0.554932    -0.584523     3.881617
 H     0.211069    -0.603801     4.919321
 H     3.135778    -2.167084    -1.768615
 H     2.505853    -2.869028    -0.285733
 C     4.342928    -1.745820    -0.030295
 C     4.492765    -1.824532     1.362151
 H     3.636672    -2.099306     1.981121
 C     5.461586    -1.393251    -0.797885
 H     5.370875    -1.348384    -1.887058
 C     5.715405    -1.539123     1.964208
 H     5.808276    -1.601854     3.051097
 C     6.686208    -1.106235    -0.196982
 H     7.542819    -0.830280    -0.816442
 C     6.816130    -1.172626     1.188934
 H     7.773723    -0.946487     1.663612
 H     2.182898     1.319105    -1.965534
 H     3.670219     0.421951    -1.647425
 C     3.217574     1.946914    -0.215263
 C     4.286377     1.767560     0.671467
 H     4.841617     0.828679     0.668980
 C     2.523377     3.162815    -0.195152
 H     1.684593     3.313854    -0.879422
 C     4.632697     2.770858     1.572531
 H     5.464299     2.608946     2.262606
 C     2.871697     4.167592     0.705230
 H     2.313708     5.107167     0.705564
 C     3.924383     3.972647     1.598623
 H     4.197876     4.757676     2.307804
 C    -1.224543     2.716117    -1.671705
 H    -1.375294     2.242585    -2.644096
 C    -1.106727     2.601759     0.729958
 H    -1.168606     2.040639     1.662638
 C    -0.942043     4.075821    -1.612637
 H    -0.880790     4.656530    -2.536171
 C    -0.796593     3.966674     0.804321
 C    -0.520637     4.597857     2.137053
 H    -1.277714     4.309860     2.882049
 H     0.460027     4.271721     2.522349
 H    -0.504507     5.694906     2.071322
 C    -0.730801     4.700008    -0.381537
 H    -0.504510     5.769158    -0.344573
 H    -3.648009    -0.835634    -1.645302
 H    -3.271466     0.723000    -2.381514
 C    -4.464572     0.852395    -0.571235
 C    -4.585635     2.246983    -0.490134
 H    -3.929745     2.880805    -1.090943
 C    -5.322319     0.063138     0.206477
 H    -5.242579    -1.025447     0.155632
 C    -5.527308     2.832394     0.352853
 H    -5.605439     3.921361     0.400629
 C    -6.263222     0.648013     1.051093
 H    -6.919008     0.011846     1.650488
 C    -6.366939     2.035796     1.130798
 H    -7.104591     2.496017     1.792642
 H    -2.731816     0.564067     1.499938
 H    -1.128583    -0.169585     1.651132
 C    -2.736541    -1.561319     1.450067
 C    -3.327834    -1.689477     2.715301
 H    -3.313149    -0.834954     3.397511
 C    -2.779220    -2.660274     0.586992
 H    -2.315061    -2.588612    -0.397844
 C    -3.933152    -2.878145     3.111238
 H    -4.387222    -2.951885     4.102589
 C    -3.387785    -3.853065     0.980715
 H    -3.408009    -4.698136     0.288040
 C    -3.964971    -3.970012     2.242510
 H    -4.441620    -4.904470     2.547969
