 100
scf done:    -2904.569309
 C     0.246865    -0.230350    -3.396456
 H     0.775230     0.525881    -3.987540
 H     0.638779    -1.240621    -3.548721
 C    -1.154754    -0.048412    -3.140935
 H    -1.657655     0.842557    -3.531758
 H    -1.816117    -0.917067    -3.074135
 H    -0.237693    -1.339574    -1.176655
Ir    -0.082202     0.272678    -1.319815
 C     1.716543    -1.920385     0.533486
 C     3.453887    -0.096052    -1.039358
 C     2.503730     0.768069     1.365578
 C    -1.900584     1.696730     1.450970
 C    -3.448397     0.746378    -0.766929
 C    -2.205872    -1.144043     1.188833
 P    -1.907825     0.358007     0.177650
 P     1.874691    -0.198675    -0.095290
 C     0.103537     2.149866    -1.644539
 O     0.174413     3.263939    -1.932667
 C     1.060901    -2.098795     1.758142
 H     0.698305    -1.229425     2.308854
 C     2.055560    -3.053766    -0.236459
 C     2.611539    -2.968930    -1.627666
 H     3.688246    -2.742410    -1.634427
 H     2.113719    -2.178229    -2.206719
 H     2.467658    -3.924281    -2.152259
 C     0.836161    -3.366367     2.285375
 H     0.332522    -3.468267     3.247604
 C     1.807390    -4.320020     0.307935
 H     2.074520    -5.200083    -0.284529
 C     1.228468    -4.487720     1.562587
 H     1.057234    -5.491893     1.958174
 C     3.475164     0.604111    -2.242402
 H     2.524106     0.984131    -2.620829
 C     4.665627    -0.605649    -0.527291
 O     4.587628    -1.291426     0.626856
 C     5.749563    -1.787582     1.224842
 H     6.256180    -2.529519     0.582988
 H     5.434485    -2.279656     2.153628
 H     6.460017    -0.978954     1.469639
 C     4.663109     0.806938    -2.944807
 H     4.656101     1.357833    -3.887491
 C     5.859985    -0.406913    -1.227117
 H     6.800037    -0.802043    -0.841314
 C     5.851118     0.298641    -2.431023
 H     6.791531     0.445939    -2.968165
 C     2.882679     0.207113     2.586943
 H     2.791260    -0.868879     2.727407
 C     2.722146     2.152861     1.186030
 O     2.419903     2.655973    -0.024222
 C     2.713915     3.996176    -0.311887
 H     2.131559     4.684651     0.324299
 H     2.425295     4.158849    -1.355895
 H     3.790059     4.204834    -0.187853
 C     3.398646     0.980960     3.625869
 H     3.675998     0.506654     4.569592
 C     3.238728     2.935402     2.224771
 H     3.394931     4.004308     2.080935
 C     3.566032     2.348458     3.444947
 H     3.967025     2.969877     4.249377
 C    -0.663452     2.311322     1.670828
 H     0.184641     1.984885     1.069207
 C    -3.023676     2.105019     2.209924
 C    -4.393440     1.513484     2.055103
 H    -5.001242     1.719208     2.947653
 H    -4.368948     0.427198     1.895669
 H    -4.911705     1.951599     1.187206
 C    -0.500422     3.310232     2.626157
 H     0.486276     3.750684     2.785980
 C    -2.839916     3.120983     3.156332
 H    -3.701571     3.442491     3.748224
 C    -1.601008     3.720451     3.370568
 H    -1.499689     4.504419     4.125366
 C    -3.380595     1.906598    -1.544651
 H    -2.466599     2.503694    -1.514961
 C    -4.637695    -0.007573    -0.808225
 O    -4.744381    -1.048055     0.037424
 C    -5.770249    -1.982516    -0.117954
 H    -6.761571    -1.554408     0.114221
 H    -5.557999    -2.791714     0.593574
 H    -5.789283    -2.396954    -1.140912
 C    -4.430532     2.311486    -2.363316
 H    -4.341620     3.225067    -2.954261
 C    -5.681100     0.371764    -1.662934
 H    -6.592828    -0.224533    -1.707141
 C    -5.576670     1.525043    -2.434876
 H    -6.403787     1.809462    -3.089848
 C    -2.186026    -1.105058     2.583593
 H    -2.047327    -0.146467     3.087453
 C    -2.360180    -2.393460     0.552970
 O    -2.414312    -2.387040    -0.789464
 C    -2.062919    -3.547807    -1.492479
 H    -1.115728    -3.970067    -1.116552
 H    -1.930044    -3.249430    -2.540412
 H    -2.853768    -4.317200    -1.439612
 C    -2.338865    -2.264335     3.345525
 H    -2.330240    -2.203680     4.435846
 C    -2.491289    -3.557834     1.312596
 H    -2.601169    -4.523090     0.817272
 C    -2.493773    -3.488352     2.704974
 H    -2.607856    -4.406105     3.287332
