 102
scf done:    -3055.130050
 C     1.618210    -3.795011     0.775277
 H     2.345918    -4.152798     0.039923
 H     2.053508    -3.609295     1.760627
 C     0.247834    -4.206232     0.679103
 H    -0.056208    -4.876574    -0.130518
 H    -0.341184    -4.324409     1.592568
 H     0.249066    -1.842940     1.681038
Ir     0.422163    -2.135145     0.084332
 O     1.133335     0.883422     1.204831
 O     3.231501    -0.282152     0.598863
 O     1.714512     0.549584    -1.304571
 O    -2.610214    -1.850312    -1.281062
 O    -2.711530    -1.390244     1.143975
 O    -1.642126     0.373034    -0.395877
 P    -1.644314    -1.250912    -0.107941
 P     1.636425    -0.238909     0.135751
 C     0.722312    -2.583736    -1.779425
 O     0.943907    -2.846051    -2.870743
 C     1.590978     2.177688     1.331829
 C     0.851927     3.206571     0.754851
 H    -0.067663     2.968304     0.217916
 C     2.752229     2.447063     2.047484
 H     3.303031     1.622815     2.501658
 C     1.322256     4.511245     0.844394
 H     0.754436     5.314259     0.367238
 C     3.203095     3.762391     2.134213
 H     4.121476     3.975308     2.688566
 C     2.512562     4.812350     1.519032
 C     3.044807     6.214964     1.544625
 H     2.241250     6.951135     1.695581
 H     3.534678     6.461512     0.587117
 H     3.788827     6.352431     2.342080
 C     4.049543    -1.303488     0.177663
 C     4.081919    -1.697763    -1.157219
 H     3.461670    -1.175556    -1.889002
 C     4.841883    -1.939094     1.131785
 H     4.787188    -1.613805     2.171827
 C     4.891517    -2.766120    -1.561107
 C     4.891084    -3.197795    -2.998591
 H     3.864794    -3.377075    -3.354844
 H     5.326025    -2.419188    -3.645805
 H     5.471582    -4.119298    -3.143479
 C     5.662764    -2.987036     0.730026
 H     6.285342    -3.497707     1.468500
 C     5.681609    -3.405236    -0.601189
 H     6.318274    -4.241987    -0.899235
 C     2.263641     1.750772    -1.688808
 C     3.487237     2.213811    -1.214409
 H     4.050159     1.615051    -0.498922
 C     1.533221     2.488185    -2.620905
 H     0.596549     2.075907    -2.999159
 C     3.970355     3.462667    -1.622208
 C     5.263369     3.976327    -1.060833
 H     5.162824     4.171621     0.019179
 H     6.072804     3.240245    -1.182340
 H     5.574228     4.910438    -1.549037
 C     2.019769     3.721034    -3.039444
 H     1.452100     4.307372    -3.766018
 C     3.222699     4.213483    -2.534598
 H     3.592650     5.188886    -2.860350
 C    -3.833629    -1.306806    -1.621673
 C    -3.900430    -0.418466    -2.691870
 H    -2.990935    -0.188843    -3.249363
 C    -4.976414    -1.634651    -0.900585
 H    -4.901686    -2.343263    -0.075468
 C    -5.110430     0.191807    -2.998211
 H    -5.151794     0.912238    -3.819306
 C    -6.183427    -1.019149    -1.225596
 H    -7.079675    -1.267318    -0.650153
 C    -6.269317    -0.081581    -2.260321
 C    -7.550729     0.641213    -2.554973
 H    -7.754147     0.682080    -3.635723
 H    -7.499430     1.682927    -2.195368
 H    -8.409267     0.161366    -2.064257
 C    -2.440463    -1.063432     2.449305
 C    -1.575453    -0.026290     2.785974
 H    -1.056433     0.531279     2.005882
 C    -3.098876    -1.796869     3.435966
 H    -3.768294    -2.606428     3.140783
 C    -1.337627     0.287497     4.128820
 C    -0.360385     1.374376     4.468784
 H    -0.395227     1.632780     5.536311
 H     0.667443     1.059930     4.226176
 H    -0.554475     2.286097     3.883659
 C    -2.877424    -1.473739     4.770394
 H    -3.389474    -2.038944     5.552901
 C    -2.002767    -0.443194     5.117317
 H    -1.832048    -0.205532     6.170358
 C    -2.608905     1.343196    -0.496566
 C    -3.790912     1.333997     0.237933
 H    -3.998978     0.516284     0.925447
 C    -2.326363     2.389865    -1.376894
 H    -1.384994     2.374728    -1.927505
 C    -4.735259     2.351806     0.062079
 C    -6.028721     2.294831     0.820115
 H    -6.629811     1.431702     0.490346
 H    -5.853142     2.171961     1.899863
 H    -6.627148     3.204336     0.670947
 C    -3.255522     3.410875    -1.537928
 H    -3.041373     4.230523    -2.228131
 C    -4.458284     3.389703    -0.832564
 H    -5.188610     4.190530    -0.972885
