  84
scf done:    -4855.674746
 C     0.624899    -4.563433    -0.466770
 H     1.322813    -4.926116    -1.227091
 H     0.931291    -4.795897     0.556518
 C    -0.769762    -4.470270    -0.778129
 H    -1.115961    -4.767349    -1.772644
 H    -1.510986    -4.626279     0.010260
 H    -0.313454    -2.579018     0.879856
Ir     0.077241    -2.482369    -0.704707
 O     2.107342    -1.001201     1.580606
 O     3.317973    -1.817793    -0.422156
 O     1.851585     0.303870    -0.607213
 O    -2.027279    -0.297691    -2.132741
 O    -3.072513    -1.560935    -0.172613
 O    -1.412535     0.283034     0.297853
 P    -1.617671    -1.004861    -0.704815
 P     1.838389    -1.249150    -0.031988
 C     0.482611    -2.452081    -2.603247
 O     0.706396    -2.422311    -3.723123
 C     1.111780    -0.687971     2.476295
 C     0.684702    -1.670278     3.368358
 H     1.120556    -2.668400     3.306548
 C     0.566507     0.594179     2.517678
 H     0.890288     1.349123     1.800226
 C    -0.288775    -1.368437     4.316634
 H    -0.641939    -2.116069     5.028902
 C    -0.409694     0.899921     3.461625
 H    -0.862531     1.891648     3.506201
 C    -0.821537    -0.085153     4.349186
 F    -1.766934     0.200551     5.249035
 C     4.554974    -1.309094    -0.087573
 C     5.034759    -1.390664     1.217429
 H     4.425273    -1.864587     1.986069
 C     5.326639    -0.733482    -1.094668
 H     4.934629    -0.700290    -2.111949
 C     6.270478    -0.830253     1.528711
 H     6.655396    -0.868317     2.548943
 C     6.558217    -0.169279    -0.785474
 H     7.157817     0.317550    -1.555749
 C     7.017391    -0.205772     0.531331
Cl     8.528352     0.539068     0.930762
 C     2.873804     1.222456    -0.619883
 C     3.186487     1.801920    -1.848486
 H     2.619419     1.503825    -2.732515
 C     3.570279     1.589897     0.532328
 H     3.323865     1.134814     1.490776
 C     4.230424     2.716696    -1.940921
 H     4.495196     3.165642    -2.899469
 C     4.624057     2.492534     0.438600
 H     5.202858     2.759361     1.323866
 C     4.957609     3.044454    -0.797614
Cl     6.296483     4.134397    -0.915694
 C    -3.299402     0.029147    -2.547896
 C    -3.717446     1.358675    -2.537724
 H    -3.040695     2.135914    -2.183027
 C    -4.145105    -0.977237    -3.014593
 H    -3.795421    -2.010602    -3.018799
 C    -4.997911     1.682566    -2.979022
 H    -5.350862     2.715169    -2.979365
 C    -5.426496    -0.657291    -3.453830
 H    -6.110521    -1.424814    -3.819823
 C    -5.839090     0.670808    -3.426480
 F    -7.065040     0.979147    -3.843840
 C    -3.862016    -0.967173     0.781950
 C    -5.072868    -0.386923     0.411389
 H    -5.379641    -0.400398    -0.635067
 C    -3.449010    -0.961797     2.113964
 H    -2.493837    -1.416188     2.381664
 C    -5.870543     0.217853     1.379631
 H    -6.819539     0.680669     1.104945
 C    -4.236776    -0.346775     3.081673
 H    -3.906759    -0.308872     4.120479
 C    -5.444357     0.244604     2.707289
Cl    -6.422691     1.024366     3.905371
 C    -1.618138     1.614710     0.069918
 C    -2.648895     2.273025     0.739681
 H    -3.301923     1.711591     1.408331
 C    -0.761722     2.313662    -0.781255
 H     0.048796     1.777825    -1.275783
 C    -2.839853     3.636676     0.537268
 H    -3.646297     4.163926     1.049128
 C    -0.954575     3.676533    -0.986963
 H    -0.295043     4.235680    -1.652342
 C    -1.997660     4.331530    -0.331340
Cl    -2.243615     6.025642    -0.591657
