  96
scf done:    -3174.942267
 C     1.573798    -3.798241     0.739725
 H     2.292748    -4.168916     0.002217
 H     2.016098    -3.616678     1.722667
 C     0.196990    -4.187496     0.649827
 H    -0.121142    -4.854651    -0.156972
 H    -0.390395    -4.293159     1.565924
 H     0.242653    -1.821539     1.645947
Ir     0.401833    -2.120397     0.049068
 O     1.129700     0.907121     1.128505
 O     3.225735    -0.290265     0.575915
 O     1.752139     0.519429    -1.367213
 O    -2.637099    -1.782306    -1.299592
 O    -2.714390    -1.340890     1.129500
 O    -1.627239     0.418946    -0.398180
 P    -1.651917    -1.206269    -0.126182
 P     1.639904    -0.240611     0.085858
 C     0.691608    -2.578729    -1.814924
 O     0.909537    -2.847642    -2.905021
 C     1.639176     2.174408     1.300899
 C     0.946673     3.249914     0.749216
 H     0.022429     3.065028     0.199604
 C     2.808896     2.370064     2.031187
 H     3.320184     1.508768     2.460922
 C     1.466995     4.534086     0.869632
 H     0.967154     5.393645     0.420807
 C     3.328654     3.655304     2.156489
 H     4.254279     3.844373     2.702859
 C     2.660882     4.715736     1.557282
 F     3.188458     5.939672     1.634654
 C     4.039445    -1.329280     0.187283
 C     4.092508    -1.745118    -1.140196
 H     3.493941    -1.226378    -1.892208
 C     4.803333    -1.959691     1.167394
 H     4.732346    -1.617965     2.201187
 C     4.895840    -2.830208    -1.510642
 C     4.919957    -3.284203    -2.941011
 H     5.389167    -2.526209    -3.588779
 H     5.481964    -4.221012    -3.057675
 H     3.898896    -3.445248    -3.320188
 C     5.618142    -3.024570     0.798874
 H     6.218984    -3.531367     1.557693
 C     5.657995    -3.464007    -0.524890
 H     6.289437    -4.313498    -0.796759
 C     2.262240     1.743192    -1.735678
 C     3.470375     2.237318    -1.244599
 H     4.049233     1.640617    -0.540013
 C     1.514975     2.470850    -2.657904
 H     0.595539     2.034976    -3.051770
 C     3.910623     3.509704    -1.618367
 C     5.166649     4.086108    -1.032674
 H     4.924799     4.891664    -0.320364
 H     5.745893     3.325259    -0.491830
 H     5.810630     4.521310    -1.811871
 C     1.964986     3.728833    -3.050790
 H     1.383818     4.308492    -3.772102
 C     3.142813     4.251987    -2.525684
 H     3.478894     5.247520    -2.826717
 C    -3.883613    -1.264456    -1.584307
 C    -4.013043    -0.358939    -2.635051
 H    -3.131914    -0.094688    -3.221303
 C    -4.988238    -1.635282    -0.820741
 H    -4.859847    -2.355197    -0.012713
 C    -5.245924     0.232926    -2.888716
 H    -5.371140     0.971978    -3.681291
 C    -6.224417    -1.047759    -1.073365
 H    -7.106067    -1.299761    -0.481531
 C    -6.330888    -0.107379    -2.090450
 F    -7.505274     0.492804    -2.296667
 C    -2.433237    -1.025021     2.436204
 C    -1.558551     0.003280     2.774665
 H    -1.041025     0.562949     1.994999
 C    -3.090466    -1.761487     3.421151
 H    -3.767217    -2.564509     3.124808
 C    -1.310499     0.305086     4.118419
 C    -0.324326     1.383062     4.461197
 H     0.700518     1.063731     4.212045
 H    -0.516341     2.300511     3.884388
 H    -0.352033     1.634027     5.530642
 C    -2.858489    -1.450080     4.756601
 H    -3.369640    -2.017513     5.538007
 C    -1.974519    -0.428349     5.105583
 H    -1.795906    -0.199598     6.159239
 C    -2.583806     1.398409    -0.511548
 C    -3.782742     1.392126     0.200316
 H    -4.005355     0.574837     0.883942
 C    -2.278376     2.444411    -1.381347
 H    -1.325207     2.428315    -1.911375
 C    -4.722302     2.407396     0.000945
 C    -6.053848     2.350502     0.690895
 H    -6.028168     1.681795     1.562452
 H    -6.377860     3.346595     1.026837
 H    -6.824857     1.969864     0.000522
 C    -3.201815     3.471118    -1.558448
 H    -2.968510     4.293205    -2.239545
 C    -4.419173     3.450040    -0.883683
 H    -5.145327     4.251363    -1.041886
