  92
scf done:    -3443.374336
 C    -1.458410    -2.930733     1.967071
 H    -2.492952    -2.982502     2.321841
 H    -1.164738    -3.793354     1.361850
 C    -0.470472    -2.295549     2.797031
 H    -0.779786    -1.880393     3.761941
 H     0.547648    -2.695096     2.804382
 H     0.293871    -1.939354     0.390231
Ir    -0.881384    -1.047722     1.085199
 O    -1.303033    -2.058701    -2.112811
 O    -3.387477    -1.148472    -1.217040
 O    -1.612517     0.464260    -1.772698
 O    -0.161208     2.094405     0.574288
 O     1.693725     1.043360     1.983189
 O     1.594493     0.627441    -0.438220
 P     0.600746     0.653002     0.835639
 P    -1.797253    -0.935014    -0.986167
 C    -2.243666    -0.009442     1.990252
 O    -3.038873     0.618330     2.524731
 C     0.006901    -2.326111    -2.383244
 C     0.509198    -3.594792    -2.093272
 H    -0.146088    -4.323659    -1.613831
 C     0.828151    -1.367775    -2.980229
 H     0.433927    -0.370989    -3.177884
 C     1.824441    -3.915853    -2.414396
 H     2.226833    -4.905080    -2.191045
 C     2.142084    -1.686322    -3.308831
 H     2.791011    -0.947522    -3.781693
 C     2.634904    -2.958031    -3.022495
Cl     4.282284    -3.345621    -3.405194
 C    -4.081817    -2.281806    -0.699451
 H    -4.738818    -2.627830    -1.513122
 H    -3.369693    -3.093422    -0.476641
 C    -4.885286    -1.922033     0.532174
 H    -5.462410    -2.815859     0.828079
 H    -4.189090    -1.720339     1.361660
 C    -5.816129    -0.732914     0.344882
 H    -6.532932    -0.951270    -0.466842
 H    -5.220672     0.128197    -0.000384
 C    -6.560722    -0.359821     1.616033
 H    -7.173536    -1.197563     1.986523
 H    -5.855562    -0.083263     2.415679
 H    -7.231768     0.497205     1.454232
 C    -2.356316     0.843200    -2.933525
 H    -1.641164     1.373351    -3.583900
 H    -2.705768    -0.054053    -3.467844
 C    -3.511394     1.745571    -2.553926
 H    -4.026071     2.049399    -3.482774
 H    -4.236758     1.151396    -1.974707
 C    -3.089093     2.971397    -1.755358
 H    -2.406928     3.590342    -2.365250
 H    -2.496248     2.640576    -0.887145
 C    -4.267295     3.809183    -1.288160
 H    -4.868576     4.174366    -2.136750
 H    -4.937208     3.222026    -0.639038
 H    -3.934521     4.686404    -0.713315
 C     0.495898     3.215686     0.141723
 C     0.649038     3.435331    -1.227043
 H     0.272629     2.683612    -1.921272
 C     0.972516     4.144023     1.064581
 H     0.842487     3.951053     2.130482
 C     1.273888     4.593484    -1.676158
 H     1.399908     4.782498    -2.743390
 C     1.598653     5.305224     0.619203
 H     1.973813     6.044258     1.328766
 C     1.746300     5.523435    -0.749464
Cl     2.525616     6.968140    -1.307945
 C     1.482647     0.777807     3.364757
 H     1.580570     1.740201     3.894329
 H     0.458726     0.398404     3.520890
 C     2.494458    -0.226881     3.870721
 H     2.291921    -0.406725     4.941165
 H     2.311724    -1.188103     3.360386
 C     3.942006     0.200027     3.673700
 H     4.126952     1.130625     4.238997
 H     4.092840     0.459138     2.612988
 C     4.940230    -0.867491     4.089318
 H     4.825511    -1.136089     5.151866
 H     4.803071    -1.789204     3.501070
 H     5.977765    -0.532194     3.940908
 C     2.968348     0.256510    -0.397476
 H     3.325358     0.388529    -1.430076
 H     3.516475     0.967103     0.242270
 C     3.190467    -1.169399     0.058115
 H     2.838049    -1.279688     1.096818
 H     2.563559    -1.838843    -0.550271
 C     4.648880    -1.590637    -0.037055
 H     5.269121    -0.919667     0.584133
 H     4.999475    -1.459841    -1.075660
 C     4.870255    -3.033516     0.385169
 H     4.530966    -3.204599     1.419599
 H     4.311221    -3.722406    -0.266903
 H     5.932892    -3.313480     0.330214
