  84
scf done:    -3738.352214
 C    -1.426030    -2.129602    -3.503465
 H    -2.047276    -3.022176    -3.384570
 H    -1.899033    -1.342030    -4.095902
 C     0.000003    -2.260403    -3.517797
 H     0.446516    -3.253992    -3.414214
 H     0.600420    -1.569638    -4.115780
 H    -0.461306     0.025023    -2.467639
Ir    -0.616148    -1.377617    -1.643147
 O    -2.726089     1.180767    -0.818094
 O    -3.802979    -1.054703    -0.848376
 O    -2.207310    -0.451477     1.093938
 O     1.783662    -1.543436     0.655696
 O     2.570299    -0.423803    -1.509876
 O     1.108155     0.870877     0.086943
 P     1.222815    -0.619593    -0.590768
 P    -2.338896    -0.409224    -0.552044
 C    -0.736326    -3.086174    -0.733198
 O    -0.786937    -4.087467    -0.184423
 C    -1.775837     2.174417    -0.794013
 C    -1.255274     2.643556    -1.998912
 H    -1.603667     2.205880    -2.935091
 C    -1.359016     2.721220     0.417553
 H    -1.764571     2.343929     1.356577
 C    -0.294249     3.649269    -1.991008
 H     0.126709     4.023947    -2.925452
 C    -0.399294     3.727891     0.429640
 H    -0.047922     4.146211     1.373527
 C     0.138616     4.174883    -0.774031
Cl     1.371608     5.394454    -0.755693
 C    -5.054941    -0.672281    -0.414299
 C    -5.657168     0.483247    -0.906379
 H    -5.120111     1.102779    -1.624287
 C    -5.716385    -1.499761     0.490222
 H    -5.216492    -2.401069     0.848011
 C    -6.926016     0.831028    -0.446485
 H    -7.400770     1.740930    -0.821436
 C    -6.982701    -1.141102     0.941105
 H    -7.496434    -1.778954     1.663793
 C    -7.588646     0.028339     0.481030
 H    -8.580997     0.309684     0.839993
 C    -3.153903    -0.246628     2.071310
 C    -3.220853    -1.203987     3.082618
 H    -2.546213    -2.061108     3.037736
 C    -3.992559     0.868717     2.089401
 H    -3.947871     1.601964     1.285330
 C    -4.149501    -1.054854     4.109469
 H    -4.204832    -1.808547     4.898581
 C    -4.923015     1.000226     3.117258
 H    -5.594389     1.861710     3.118558
 C    -5.007724     0.044092     4.128051
 H    -5.741263     0.155248     4.929313
 C     3.095856    -1.792441     0.971698
 C     3.687381    -1.152591     2.059483
 H     3.109713    -0.438667     2.646898
 C     3.816006    -2.719020     0.217635
 H     3.331657    -3.212782    -0.626211
 C     5.014536    -1.423447     2.379556
 H     5.492169    -0.923787     3.223532
 C     5.143348    -2.989941     0.534324
 H     5.720931    -3.705607    -0.052552
 C     5.739559    -2.333572     1.611467
Cl     7.396743    -2.656418     2.000513
 C     3.415634     0.663752    -1.502446
 C     4.695751     0.536211    -0.968272
 H     5.010970    -0.418182    -0.546138
 C     2.986819     1.870044    -2.055116
 H     1.975482     1.942079    -2.457636
 C     5.547875     1.639399    -0.975786
 H     6.550714     1.542139    -0.553427
 C     3.844386     2.967014    -2.050964
 H     3.499328     3.918948    -2.459227
 C     5.125319     2.856881    -1.508165
 H     5.793984     3.720410    -1.502549
 C     1.460333     1.271385     1.348662
 C     2.505189     2.180216     1.503795
 H     3.045598     2.532335     0.624335
 C     0.731124     0.814586     2.446859
 H    -0.092810     0.117106     2.286318
 C     2.831311     2.622708     2.784291
 H     3.650265     3.334602     2.910826
 C     1.072022     1.262051     3.721496
 H     0.505385     0.904067     4.584303
 C     2.123618     2.163280     3.895734
 H     2.386914     2.512036     4.896700
