  56
scf done:    -2971.965750
 C     3.854196    -1.799183    -1.179950
 H     4.214326    -1.330871    -2.100761
 H     4.618438    -1.880508    -0.402221
 C     2.819490    -2.788967    -1.253304
 H     2.406524    -3.061641    -2.229099
 H     2.821778    -3.616212    -0.537810
 H     2.469748    -1.584150     0.996870
Ir     2.006672    -0.952773    -0.444678
 O     1.616429     2.058121     1.204427
 O     3.779138     1.032417     1.627366
 O     3.415753     2.011291    -0.610883
 O    -1.275380    -1.088083    -0.777384
 O    -0.527974    -2.867954     0.759808
 O    -0.500526    -0.500619     1.642132
 P    -0.083803    -1.349639     0.317869
 P     2.681261     1.018028     0.433635
 C     1.467662    -0.278717    -2.173662
 O     1.136642     0.132864    -3.187790
 C     0.416974     2.451495     0.706396
 C    -0.614136     2.690236     1.618730
 H    -0.424608     2.514123     2.678525
 C     0.199883     2.656599    -0.658211
 H     1.008141     2.490359    -1.372073
 C    -1.852050     3.136907     1.176464
 H    -2.662793     3.324052     1.882434
 C    -1.044511     3.095646    -1.106547
 H    -1.222439     3.250813    -2.171798
 C    -2.063296     3.335126    -0.188895
Cl    -3.625712     3.847785    -0.747992
 C     3.515182     0.425558     2.873708
 H     2.724900     0.970902     3.413534
 H     3.205922    -0.624818     2.743551
 H     4.445946     0.460589     3.454745
 C     3.956406     3.261394    -0.212143
 H     3.175789     3.910344     0.214964
 H     4.754828     3.120334     0.530353
 H     4.368514     3.730898    -1.114273
 C    -2.627650    -1.116506    -0.545466
 C    -3.322347     0.090302    -0.580900
 H    -2.768841     1.009981    -0.765807
 C    -3.303034    -2.316749    -0.324378
 H    -2.741051    -3.250470    -0.310620
 C    -4.696646     0.111329    -0.369243
 H    -5.240574     1.056822    -0.390922
 C    -4.678826    -2.299234    -0.110389
 H    -5.224230    -3.227398     0.067960
 C    -5.368399    -1.086760    -0.127874
Cl    -7.079955    -1.071328     0.145831
 C     0.285606    -3.620993     1.633854
 H     1.339149    -3.595572     1.313685
 H     0.220182    -3.243122     2.668367
 H    -0.079029    -4.656516     1.608859
 C    -1.647028    -0.711044     2.447939
 H    -2.440712    -0.003565     2.166923
 H    -2.030931    -1.736907     2.347544
 H    -1.355789    -0.532481     3.493264
