  92
scf done:    -2874.139631
 C    -0.027519    -3.523033    -1.313796
 H    -0.358229    -4.281893    -0.597304
 H    -0.661329    -3.462880    -2.203269
 C     1.372413    -3.218911    -1.421122
 H     2.079926    -3.765905    -0.788532
 H     1.788155    -2.932966    -2.391882
 H     0.113757    -1.054637    -1.982622
Ir     0.343607    -1.586379    -0.443943
 O    -2.186948     0.436541    -1.188384
 C    -3.088595    -1.946753    -0.270775
 C    -2.141297     0.070783     1.532484
 O     2.183136     0.771285     1.198276
 C     3.260624     0.239927    -1.251780
 C     0.955944     1.873353    -0.878355
 P     1.676562     0.285481    -0.349374
 P    -1.750920    -0.728574    -0.057077
 C     0.627963    -2.286858     1.315498
 O     0.788493    -2.704541     2.374744
 C    -3.115932     1.411858    -0.956531
 C    -4.427980     1.259609    -1.406473
 H    -4.716162     0.340610    -1.918047
 C    -2.734385     2.580018    -0.292199
 H    -1.707335     2.679706     0.059966
 C    -5.360021     2.273998    -1.192789
 H    -6.391924     2.179729    -1.535706
 C    -3.660799     3.593834    -0.075339
 H    -3.384669     4.511134     0.447788
 C    -4.965163     3.427583    -0.527762
 F    -5.856918     4.398258    -0.318454
 C    -3.593685    -2.196809    -1.551435
 H    -3.247219    -1.590797    -2.392199
 C    -3.504034    -2.761066     0.788293
 H    -3.103243    -2.599545     1.792507
 C    -4.515969    -3.217683    -1.758360
 H    -4.900210    -3.397928    -2.766398
 C    -4.423853    -3.782637     0.571286
 H    -4.737826    -4.408013     1.411749
 C    -4.952819    -4.026144    -0.701861
 C    -5.970079    -5.106482    -0.923305
 H    -5.836878    -5.937260    -0.215363
 H    -6.993068    -4.718272    -0.783074
 H    -5.912140    -5.511887    -1.943799
 C    -3.461446     0.286949     1.956289
 H    -4.294803    -0.098628     1.364900
 C    -1.093634     0.588414     2.300413
 H    -0.058637     0.442309     1.982500
 C    -3.718234     1.004368     3.116973
 H    -4.753565     1.170985     3.426951
 C    -1.360423     1.307842     3.462615
 H    -0.526930     1.707396     4.046509
 C    -2.673010     1.529104     3.890882
 C    -2.962776     2.286438     5.152389
 H    -2.089018     2.861939     5.488429
 H    -3.804615     2.982070     5.017677
 H    -3.239767     1.596968     5.967096
 C     3.423774     0.490640     1.698805
 C     4.491098     1.352795     1.436389
 H     4.324158     2.234971     0.817102
 C     3.619609    -0.643840     2.487451
 H     2.778279    -1.304535     2.697134
 C     5.755201     1.076394     1.946649
 H     6.604942     1.731802     1.748122
 C     4.883004    -0.922873     3.003936
 H     5.060545    -1.803881     3.623237
 C     5.936715    -0.063132     2.721590
 F     7.148975    -0.333438     3.208279
 C     4.011115    -0.940983    -1.194908
 H     3.589447    -1.812824    -0.689101
 C     3.790791     1.348329    -1.918821
 H     3.218700     2.277439    -1.974922
 C     5.274669    -0.999502    -1.768332
 H     5.853859    -1.924526    -1.700439
 C     5.050469     1.274890    -2.508255
 H     5.451122     2.148143    -3.030541
 C     5.816759     0.106491    -2.437248
 C     7.171024     0.023498    -3.076598
 H     7.543228     1.015638    -3.367701
 H     7.905703    -0.434047    -2.396744
 H     7.138784    -0.600704    -3.984759
 C     1.058712     3.028649    -0.097879
 H     1.573864     2.981396     0.862985
 C     0.285000     1.941170    -2.105757
 H     0.173103     1.039134    -2.710716
 C     0.497922     4.226831    -0.539335
 H     0.579149     5.119609     0.087158
 C    -0.260620     3.141982    -2.540873
 H    -0.788841     3.174136    -3.497515
 C    -0.173579     4.305052    -1.763330
 C    -0.837611     5.572991    -2.208583
 H    -0.710730     5.738388    -3.288745
 H    -1.922352     5.524234    -2.013015
 H    -0.441589     6.448821    -1.675413
