  96
scf done:    -3174.781945
 C    -1.230008    -3.233825    -1.705995
 H    -1.715885    -3.932824    -1.016788
 H    -1.905138    -2.841086    -2.471965
 C     0.161542    -3.412505    -2.010581
 H     0.692930    -4.254804    -1.552985
 H     0.526441    -3.158811    -3.010316
 H    -0.294984    -0.885242    -2.160049
Ir    -0.104736    -1.679762    -0.738736
 O    -1.772106     1.126517    -0.894989
 C    -3.434203    -0.994912    -0.584109
 C    -1.977055     0.108424     1.732631
 O     2.149268    -0.149808     1.095936
 C     3.371030    -1.022964    -1.174329
 C     1.710129     1.295599    -1.285658
 P     1.778809    -0.372052    -0.528914
 P    -1.831221    -0.310770    -0.055506
 C     0.105270    -2.665824     0.899546
 O     0.202002    -3.252720     1.881425
 C    -2.528927     2.254032    -0.891750
 C    -2.133955     3.240872    -1.803191
 H    -1.279030     3.038589    -2.449138
 C    -3.635107     2.470129    -0.069727
 H    -3.985973     1.687091     0.600579
 C    -2.815552     4.450605    -1.867886
 H    -2.518500     5.231536    -2.570480
 C    -4.317824     3.685030    -0.134129
 H    -5.185388     3.874566     0.500760
 C    -3.899414     4.664485    -1.023054
 F    -4.554183     5.827412    -1.077968
 C    -4.114762    -0.515313    -1.699149
 H    -3.741314     0.369556    -2.217037
 C    -3.894567    -2.165196     0.050158
 O    -3.159765    -2.572761     1.102890
 C    -3.432518    -3.800600     1.716082
 H    -4.418991    -3.799415     2.212742
 H    -2.648831    -3.950302     2.469035
 H    -3.397936    -4.631483     0.990281
 C    -5.261520    -1.161972    -2.167209
 H    -5.788225    -0.771519    -3.040199
 C    -5.036126    -2.816754    -0.414124
 H    -5.396575    -3.722340     0.074981
 C    -5.718529    -2.304537    -1.521213
 H    -6.611994    -2.819667    -1.882205
 C    -0.759392     0.230402     2.410897
 H     0.170740     0.130635     1.849798
 C    -3.167581     0.194328     2.489581
 O    -4.335511     0.076447     1.829901
 C    -5.536720    -0.074349     2.532341
 H    -5.485194    -0.920063     3.239184
 H    -6.307381    -0.281973     1.779036
 H    -5.809442     0.840552     3.086697
 C    -0.700276     0.462096     3.783283
 H     0.270330     0.552499     4.275046
 C    -3.111351     0.407459     3.871013
 H    -4.031025     0.470763     4.452799
 C    -1.882008     0.546348     4.511114
 H    -1.857669     0.712801     5.591009
 C     3.323109     0.242764     1.665261
 C     3.488943     1.565545     2.079331
 H     2.681257     2.271985     1.892090
 C     4.330936    -0.695933     1.893066
 H     4.177154    -1.728963     1.577829
 C     4.668759     1.955968     2.705249
 H     4.824010     2.983509     3.039816
 C     5.517606    -0.306996     2.510465
 H     6.322539    -1.020647     2.695156
 C     5.673283     1.015636     2.905798
 F     6.811287     1.392291     3.495228
 C     3.405073    -2.364807    -1.556920
 H     2.466729    -2.921827    -1.504820
 C     4.567758    -0.269812    -1.236216
 O     4.500866     1.011000    -0.849486
 C     5.657177     1.798914    -0.813776
 H     6.418500     1.369225    -0.140991
 H     5.349387     2.776407    -0.423231
 H     6.089428     1.932383    -1.820472
 C     4.581557    -2.972192    -1.992604
 H     4.580736    -4.023607    -2.285960
 C     5.748680    -0.875329    -1.679145
 H     6.674994    -0.302974    -1.727453
 C     5.749062    -2.218693    -2.051756
 H     6.682040    -2.674833    -2.392685
 C     2.122221     1.415817    -2.614630
 H     2.511869     0.532518    -3.127668
 C     1.173505     2.426623    -0.642019
 O     0.707582     2.266667     0.612342
 C     0.069599     3.338930     1.256538
 H     0.769856     4.170847     1.450026
 H    -0.298284     2.945971     2.212441
 H    -0.786165     3.712128     0.671171
 C     2.058986     2.629582    -3.293305
 H     2.389001     2.694598    -4.331967
 C     1.144620     3.657927    -1.308472
 H     0.750086     4.541502    -0.807603
 C     1.586381     3.755592    -2.625528
 H     1.547143     4.723052    -3.132245
