  80
scf done:    -2565.709841
 C     0.993422    -1.074809     3.464192
 H     0.975000    -0.249314     4.183153
 H     0.222620    -1.829469     3.644880
 C     2.247312    -1.468868     2.888119
 H     3.158629    -0.933415     3.171060
 H     2.417910    -2.519900     2.640314
 H     0.456494    -1.963160     1.129559
Ir     1.049990    -0.461766     1.395824
 O    -1.443047    -0.376894    -0.721988
 O    -2.194417    -1.018154     1.596355
 O    -1.882065     1.385243     1.087021
 O     1.581708     0.076497    -1.956299
 O     3.683751    -0.450194    -0.600204
 O     2.099126    -2.222673    -1.294322
 P     2.100731    -0.762639    -0.596554
 P    -1.119740    -0.043833     0.880460
 C     1.844014     1.242806     1.813341
 O     2.359712     2.231224     2.084639
 C    -2.703589    -0.567122    -1.217005
 C    -3.122941    -1.864873    -1.514039
 H    -2.451824    -2.698313    -1.300876
 C    -3.548753     0.516763    -1.462010
 H    -3.205701     1.521854    -1.218561
 C    -4.384504    -2.083664    -2.060259
 H    -4.735119    -3.088553    -2.302144
 C    -4.814755     0.302092    -2.001260
 H    -5.495657     1.131295    -2.201548
 C    -5.217060    -0.995370    -2.295097
 F    -6.426945    -1.200926    -2.814660
 C    -3.447395    -0.645940     2.195310
 H    -3.831068     0.247422     1.679058
 C    -3.213865    -0.321361     3.656610
 H    -2.512634     0.518501     3.759607
 H    -2.789618    -1.192647     4.178495
 H    -4.159035    -0.044572     4.147617
 C    -4.398283    -1.802588     1.980403
 H    -4.539909    -1.992310     0.907377
 H    -4.002581    -2.716776     2.448503
 H    -5.377975    -1.577545     2.427461
 C    -1.182154     2.631634     1.221231
 H    -0.217305     2.545163     0.692650
 C    -0.940920     2.911956     2.690428
 H    -0.395648     2.080683     3.159640
 H    -1.899231     3.040504     3.217003
 H    -0.345872     3.828253     2.816685
 C    -2.022271     3.695671     0.549835
 H    -2.188916     3.450554    -0.507355
 H    -2.997988     3.789461     1.050846
 H    -1.511065     4.668294     0.587963
 C     1.191314     1.378858    -1.920363
 C     0.016130     1.732304    -2.587900
 H    -0.560472     0.952034    -3.085675
 C     1.939803     2.356391    -1.260216
 H     2.864308     2.077900    -0.752410
 C    -0.408110     3.056197    -2.598419
 H    -1.320978     3.355212    -3.117201
 C     1.505044     3.681141    -1.248873
 H     2.067021     4.455404    -0.723819
 C     0.336391     4.014480    -1.918240
 F    -0.097284     5.277538    -1.892764
 C     4.521812    -0.700784    -1.748951
 H     3.869821    -0.865213    -2.622577
 C     5.333746    -1.949977    -1.481407
 H     4.664668    -2.804968    -1.315571
 H     5.961062    -1.813950    -0.587272
 H     5.988415    -2.174581    -2.337047
 C     5.363364     0.536263    -1.973762
 H     4.729670     1.407712    -2.192240
 H     5.966497     0.756818    -1.079784
 H     6.044337     0.386194    -2.824698
 C     0.858624    -2.893843    -1.580837
 H     0.041359    -2.325599    -1.105676
 C     0.932714    -4.271284    -0.961566
 H     1.072844    -4.191647     0.125918
 H     1.777328    -4.837782    -1.383239
 H     0.006245    -4.832820    -1.155160
 C     0.650491    -2.899020    -3.080513
 H     0.631964    -1.869168    -3.462312
 H     1.464236    -3.445257    -3.582216
 H    -0.303510    -3.385410    -3.334779
