 118
scf done:    -3512.740272
 C     0.718070    -3.009915    -1.918677
 H     1.089859    -2.916180    -2.944545
 H     1.406438    -3.539570    -1.251997
 C    -0.699483    -3.103680    -1.696710
 H    -1.377380    -3.080999    -2.557178
 H    -1.081862    -3.706020    -0.867613
 H     0.294759    -1.931205     0.360029
Ir    -0.005103    -1.174873    -1.056837
 O     1.641742     0.644248     1.258769
 C     3.050692    -1.456231     0.177697
 C     3.024621     1.126460    -0.978452
 O    -2.164462     1.274823    -0.522186
 C    -3.453525    -1.097767    -0.162907
 C    -1.554677    -0.074951     1.870348
 P    -1.828080    -0.247640     0.058640
 P     1.862376    -0.108833    -0.229712
 C    -0.327365    -0.384067    -2.762726
 O    -0.532015     0.021654    -3.821762
 C     1.569480     1.990205     1.403121
 C     0.965785     2.814220     0.449967
 H     0.487877     2.364636    -0.422794
 C     2.133647     2.530997     2.572241
 C     2.719775     1.613540     3.597763
 H     1.919354     1.057116     4.112323
 H     3.355692     0.860634     3.112951
 H     3.300210     2.169346     4.347747
 C     0.969346     4.195299     0.625551
 H     0.503920     4.833262    -0.130079
 C     2.115768     3.920401     2.725414
 H     2.566747     4.353524     3.623155
 C     1.555494     4.756059     1.758572
 H     1.568193     5.839647     1.896868
 C     3.778856    -1.978887    -0.906489
 O     3.555048    -1.381394    -2.092400
 C     4.156527    -1.870684    -3.253429
 H     3.789005    -1.246100    -4.077483
 H     5.257153    -1.792076    -3.210058
 H     3.876148    -2.921080    -3.445351
 C     3.186100    -2.081408     1.428488
 O     2.414209    -1.625095     2.432603
 C     2.617293    -2.100306     3.728808
 H     1.930675    -1.537158     4.372051
 H     3.654716    -1.932367     4.069442
 H     2.386620    -3.177531     3.819432
 C     4.083091    -3.146583     1.599202
 H     4.198489    -3.620642     2.572995
 C     4.668352    -3.047412    -0.745736
 H     5.232599    -3.435849    -1.592596
 C     4.817649    -3.613073     0.514846
 H     5.511700    -4.445377     0.653742
 C     4.271565     1.351668    -0.354979
 O     4.474472     0.738020     0.823069
 C     5.749707     0.712613     1.394217
 H     5.683728     0.046827     2.264641
 H     6.500431     0.308324     0.693904
 H     6.068865     1.713650     1.732654
 C     2.736807     1.861037    -2.144297
 O     1.502073     1.742318    -2.661195
 C     1.135486     2.555344    -3.743157
 H     1.736686     2.335040    -4.641876
 H     1.237865     3.625302    -3.493295
 H     0.087314     2.327750    -3.959972
 C     3.698116     2.704547    -2.719743
 H     3.476814     3.257845    -3.630276
 C     5.236061     2.187642    -0.928876
 H     6.198888     2.341248    -0.443816
 C     4.939201     2.845691    -2.114336
 H     5.685401     3.503296    -2.566848
 C    -3.338384     1.957322    -0.481831
 C    -4.295911     1.793163     0.518873
 H    -4.123084     1.085732     1.330563
 C    -3.530135     2.881043    -1.523941
 C    -2.472824     3.028821    -2.572988
 H    -2.774226     3.751237    -3.344362
 H    -1.522159     3.364249    -2.128029
 H    -2.262186     2.059039    -3.048617
 C    -5.467640     2.546795     0.480186
 H    -6.216428     2.411569     1.264581
 C    -4.709888     3.627346    -1.532768
 H    -4.868745     4.348220    -2.340032
 C    -5.680303     3.466146    -0.543889
 H    -6.597791     4.058273    -0.574499
 C    -4.272495    -1.594740     0.872350
 O    -4.026540    -1.149957     2.116039
 C    -4.545983    -1.822975     3.225227
 H    -4.056967    -1.385378     4.105603
 H    -5.638274    -1.689736     3.316810
 H    -4.315549    -2.901177     3.184893
 C    -3.861501    -1.362221    -1.489921
 O    -3.174450    -0.737513    -2.460024
 C    -3.537575    -0.936607    -3.799258
 H    -2.845583    -0.334499    -4.398064
 H    -4.572876    -0.605040    -3.987316
 H    -3.435180    -1.994967    -4.094994
 C    -4.938719    -2.212636    -1.765587
 H    -5.228443    -2.428900    -2.792220
 C    -5.338539    -2.462469     0.604134
 H    -5.944890    -2.859375     1.417332
 C    -5.649028    -2.774089    -0.712157
 H    -6.485029    -3.444784    -0.924646
 C    -1.286383    -1.265145     2.569122
 O    -1.537915    -2.404342     1.892928
 C    -0.856002    -3.576741     2.245406
 H    -1.047131    -4.301946     1.444574
 H     0.228912    -3.396100     2.313224
 H    -1.224113    -3.995984     3.198600
 C    -1.429426     1.142327     2.565998
 O    -1.738876     2.265768     1.906843
 C    -1.731898     3.495791     2.573964
 H    -2.050430     4.242909     1.836870
 H    -0.723871     3.758581     2.932590
 H    -2.442194     3.497800     3.419647
 C    -1.002102     1.154442     3.903212
 H    -0.885604     2.099973     4.430055
 C    -0.855705    -1.259580     3.896806
 H    -0.656411    -2.195710     4.417884
 C    -0.712956    -0.039578     4.550184
 H    -0.380713    -0.018211     5.591418
