  96
scf done:    -3895.492981
 C    -1.043584    -2.164838    -3.838613
 H    -1.698551    -3.041153    -3.834925
 H    -1.431561    -1.330915    -4.429573
 C     0.373699    -2.344355    -3.722434
 H     0.778149    -3.357460    -3.635955
 H     1.049829    -1.643627    -4.219636
 H    -0.123940    -0.104905    -2.597410
Ir    -0.396515    -1.545072    -1.870410
 O    -2.520393     1.031687    -1.258487
 O    -3.616911    -1.189298    -1.175791
 O    -2.071266    -0.471879     0.770365
 O     1.835496    -1.869128     0.608962
 O     2.763010    -0.622172    -1.416696
 O     1.151471     0.565910     0.133377
 P     1.351186    -0.877783    -0.618229
 P    -2.153708    -0.538756    -0.877111
 C    -0.659422    -3.296018    -1.080091
 O    -0.796956    -4.325873    -0.603512
 C    -1.586436     2.034285    -1.325998
 C    -1.238069     2.538053    -2.578425
 H    -1.681049     2.092296    -3.470197
 C    -1.024392     2.569682    -0.168470
 H    -1.278555     2.153441     0.806795
 C    -0.337683     3.594526    -2.675604
 H    -0.060683     4.002937    -3.648678
 C    -0.119471     3.622299    -0.260874
 H     0.335853     4.039097     0.638407
 C     0.214083     4.132090    -1.513203
Cl     1.325584     5.461260    -1.629445
 C    -4.853666    -0.769853    -0.726204
 C    -5.460969     0.363602    -1.256202
 H    -4.950801     0.931693    -2.033837
 C    -5.496650    -1.527639     0.249138
 H    -5.006710    -2.422449     0.635619
 C    -6.697479     0.766738    -0.756048
 H    -7.167859     1.665445    -1.164457
 C    -6.727976    -1.109511     0.737729
 H    -7.217431    -1.696663     1.519512
 C    -7.344924     0.053196     0.257513
 C    -8.646028     0.527004     0.836951
 H    -8.483759     1.037806     1.801279
 H    -9.333871    -0.310759     1.025935
 H    -9.151455     1.238918     0.169123
 C    -3.031351    -0.146967     1.702683
 C    -3.194777    -1.026178     2.769848
 H    -2.574148    -1.923447     2.812759
 C    -3.797597     1.016128     1.627878
 H    -3.671947     1.704321     0.793253
 C    -4.156928    -0.761393     3.740640
 H    -4.285097    -1.462861     4.569645
 C    -4.761565     1.257045     2.600590
 H    -5.375609     2.158089     2.519800
 C    -4.969772     0.374510     3.667224
 C    -6.053625     0.626511     4.674399
 H    -6.131670     1.694665     4.926267
 H    -5.879859     0.068268     5.605315
 H    -7.035424     0.312903     4.280931
 C     3.128707    -2.088209     1.016023
 C     3.602466    -1.501817     2.188362
 H     2.948495    -0.853191     2.771603
 C     3.948901    -2.930333     0.264895
 H     3.557422    -3.382396    -0.647595
 C     4.910786    -1.740927     2.598852
 H     5.296182    -1.281605     3.510218
 C     5.257428    -3.169608     0.672073
 H     5.911969    -3.819024     0.088933
 C     5.735251    -2.566248     1.835652
Cl     7.369286    -2.849076     2.338846
 C     3.550034     0.505232    -1.331862
 C     4.791851     0.433771    -0.708634
 H     5.126822    -0.511251    -0.279723
 C     3.101109     1.705539    -1.880654
 H     2.117495     1.747472    -2.352001
 C     5.579055     1.580882    -0.624203
 H     6.549716     1.521101    -0.124417
 C     3.896944     2.841612    -1.782207
 H     3.524271     3.784997    -2.187957
 C     5.147120     2.803568    -1.149576
 C     5.998438     4.037039    -1.063434
 H     5.387196     4.931489    -0.871449
 H     6.540658     4.211186    -2.007815
 H     6.748768     3.955427    -0.264097
 C     1.443267     0.932002     1.421248
 C     2.486833     1.821665     1.665503
 H     3.086374     2.191023     0.832758
 C     0.658334     0.453988     2.469617
 H    -0.161379    -0.230660     2.249270
 C     2.754531     2.209771     2.975918
 H     3.581923     2.899432     3.164194
 C     0.944077     0.851729     3.772770
 H     0.329387     0.466882     4.591134
 C     1.997131     1.732222     4.052905
 C     2.279475     2.178104     5.458362
 H     3.335117     2.456640     5.588891
 H     2.040708     1.390144     6.187443
 H     1.673176     3.060828     5.722530
