  84
scf done:    -3017.794469
 C    -1.077494    -2.559451    -3.215201
 H    -1.709281    -3.436257    -3.045050
 H    -1.507070    -1.839946    -3.917338
 C     0.346934    -2.690100    -3.127144
 H     0.779788    -3.667853    -2.894609
 H     0.986568    -2.065731    -3.756790
 H    -0.169925    -0.308870    -2.357497
Ir    -0.377851    -1.616997    -1.398370
 O    -2.549926     0.980874    -1.125865
 O    -3.578854    -1.218368    -0.628589
 O    -1.977864    -0.165320     1.097779
 O     1.990279    -1.529896     0.971151
 O     2.755288    -0.516217    -1.241331
 O     1.173890     0.796392     0.230465
 P     1.397365    -0.727004    -0.339005
 P    -2.123180    -0.495687    -0.512659
 C    -0.570516    -3.222252    -0.326381
 O    -0.667593    -4.163339     0.314804
 C    -1.639188     1.958042    -1.449736
 C    -1.385656     2.212492    -2.796740
 H    -1.885008     1.605664    -3.553342
 C    -1.006546     2.702973    -0.455845
 H    -1.193171     2.481175     0.595616
 C    -0.500532     3.225104    -3.155981
 H    -0.282574     3.447111    -4.202020
 C    -0.117287     3.713501    -0.810008
 H     0.404604     4.297960    -0.050728
 C     0.120929     3.961964    -2.154864
 F     0.981764     4.925150    -2.499162
 C    -4.811038    -0.751734    -0.218684
 C    -5.468988     0.240383    -0.941679
 H    -4.992745     0.661312    -1.826949
 C    -5.393162    -1.326203     0.908797
 H    -4.852528    -2.107396     1.445130
 C    -6.711925     0.687752    -0.497930
 H    -7.229793     1.471880    -1.055450
 C    -6.633672    -0.869311     1.342839
 H    -7.084260    -1.305076     2.237307
 C    -7.293567     0.143206     0.646116
 H    -8.265166     0.502927     0.991603
 C    -2.875385     0.333892     2.012266
 C    -2.933072    -0.320467     3.242512
 H    -2.298074    -1.194218     3.402144
 C    -3.666636     1.456187     1.764757
 H    -3.622947     1.954767     0.797567
 C    -3.806676     0.137395     4.225225
 H    -3.854965    -0.380269     5.186249
 C    -4.544015     1.895878     2.752923
 H    -5.179005     2.761440     2.551322
 C    -4.620465     1.243221     3.982371
 H    -5.312009     1.596565     4.750052
 C     3.314199    -1.637104     1.331510
 C     3.812640    -0.885768     2.394532
 H     3.154986    -0.197213     2.925262
 C     4.137317    -2.533325     0.649135
 H     3.725054    -3.113671    -0.177501
 C     5.148217    -1.018469     2.765942
 H     5.564703    -0.439752     3.592039
 C     5.473235    -2.666158     1.016306
 H     6.140295    -3.355801     0.496333
 C     5.963756    -1.902277     2.069837
 F     7.242856    -2.025207     2.422269
 C     3.478099     0.647933    -1.360936
 C     4.759745     0.714758    -0.819461
 H     5.166419    -0.151011    -0.295317
 C     2.924840     1.736961    -2.033841
 H     1.915666     1.657721    -2.441337
 C     5.488575     1.896577    -0.945755
 H     6.493121     1.953602    -0.520026
 C     3.656657     2.916949    -2.141731
 H     3.209999     3.778380    -2.642290
 C     4.939305     3.000867    -1.597078
 H     5.510616     3.927830    -1.682364
 C     1.497029     1.342396     1.443242
 C     2.506342     2.301993     1.513339
 H     3.050416     2.575902     0.608788
 C     0.773191     0.975087     2.577958
 H    -0.021696     0.235218     2.481799
 C     2.805971     2.879888     2.745504
 H     3.601027     3.626794     2.805906
 C     1.085420     1.559869     3.803387
 H     0.520604     1.272003     4.693147
 C     2.104706     2.508585     3.893270
 H     2.347033     2.964091     4.855901
