  98
scf done:    -2754.329813
 C    -0.220902    -3.180546    -2.279229
 H    -0.511624    -4.125058    -1.808481
 H    -0.843331    -2.917509    -3.140111
 C     1.163364    -2.798266    -2.294463
 H     1.910617    -3.449052    -1.828407
 H     1.551016    -2.235069    -3.148534
 H    -0.237708    -0.618962    -2.184774
Ir     0.112781    -1.554557    -0.884975
 O    -1.561502     1.105868     0.019719
 C    -3.383090    -0.768226    -0.769255
 C    -2.057975    -0.944827     1.783999
 O     1.765536     0.377419     1.296447
 C     3.429870    -0.902128    -0.451886
 C     2.038153     1.490949    -1.198933
 P     1.800764    -0.088357    -0.327107
 P    -1.752021    -0.574359     0.024132
 C     0.413299    -2.748605     0.593229
 O     0.570236    -3.464967     1.475015
 C    -2.536351     2.009125     0.350049
 C    -2.822523     2.279449     1.688963
 H    -2.273958     1.747677     2.466335
 C    -3.202659     2.683924    -0.687171
 C    -2.860214     2.409892    -2.118295
 H    -1.814579     2.681572    -2.326684
 H    -2.967155     1.342014    -2.360376
 H    -3.508371     2.984544    -2.793579
 C    -3.807213     3.209433     2.014801
 H    -4.031604     3.413644     3.064328
 C    -4.183322     3.614019    -0.330510
 H    -4.716071     4.142859    -1.125678
 C    -4.495192     3.874850     1.002703
 H    -5.269837     4.604469     1.249473
 C    -4.562374    -0.209811    -0.248784
 H    -4.552223     0.315460     0.707795
 C    -3.441886    -1.439722    -1.994075
 H    -2.522399    -1.874827    -2.391467
 C    -5.755823    -0.311943    -0.953629
 H    -6.660672     0.140834    -0.538751
 C    -4.643333    -1.542305    -2.690050
 H    -4.666945    -2.069597    -3.647650
 C    -5.819135    -0.976938    -2.185925
 C    -7.119632    -1.098390    -2.923519
 H    -7.689271    -0.157610    -2.890354
 H    -6.963219    -1.370064    -3.976865
 H    -7.755121    -1.877659    -2.470823
 C    -3.153530    -1.680500     2.240548
 H    -3.923642    -2.011167     1.540941
 C    -1.066369    -0.567068     2.704133
 H    -0.175909    -0.036489     2.355030
 C    -3.269523    -2.006844     3.591866
 H    -4.134532    -2.583832     3.930403
 C    -1.197898    -0.886593     4.048157
 H    -0.416979    -0.577931     4.749086
 C    -2.303562    -1.610831     4.519495
 C    -2.421221    -1.964876     5.972382
 H    -1.617027    -2.654566     6.275994
 H    -2.335367    -1.070662     6.609351
 H    -3.381616    -2.450600     6.194228
 C     2.564430     1.340648     1.862989
 C     3.809456     0.977331     2.383218
 H     4.132088    -0.060278     2.303669
 C     2.098647     2.663263     1.953948
 C     0.771273     3.078455     1.399011
 H     0.163604     2.217955     1.099722
 H     0.205319     3.670589     2.133920
 H     0.906488     3.706872     0.503746
 C     4.622425     1.932171     2.985298
 H     5.595522     1.640005     3.386832
 C     2.936359     3.600110     2.571775
 H     2.588676     4.634183     2.650150
 C     4.185382     3.252900     3.077031
 H     4.814417     4.010861     3.549628
 C     3.774956    -1.869396     0.503564
 H     3.117064    -2.045007     1.358687
 C     4.266707    -0.726208    -1.555984
 H     4.008625     0.003224    -2.326880
 C     4.939052    -2.613125     0.368697
 H     5.190684    -3.358288     1.128867
 C     5.430783    -1.483145    -1.688293
 H     6.072381    -1.329352    -2.560327
 C     5.792452    -2.432998    -0.730500
 C     7.046252    -3.245634    -0.865403
 H     7.579438    -3.013672    -1.797771
 H     7.734999    -3.056647    -0.026317
 H     6.823191    -4.324338    -0.861873
 C     3.190445     2.271067    -1.013762
 H     4.014272     1.901458    -0.399891
 C     1.004233     1.993500    -1.993253
 H     0.105577     1.388559    -2.126662
 C     3.287470     3.527831    -1.599387
 H     4.185805     4.128107    -1.431598
 C     1.114049     3.248408    -2.583748
 H     0.294152     3.627165    -3.200573
 C     2.252362     4.039884    -2.393456
 C     2.377947     5.385482    -3.043907
 H     2.937418     5.310039    -3.991414
 H     1.393228     5.814686    -3.277051
 H     2.921294     6.093933    -2.401653
