  82
scf done:    -2145.077242
 C     0.780505    -3.979872    -0.931887
 H     0.726056    -4.718863    -0.125363
 H     0.037932    -4.146330    -1.718812
 C     2.069990    -3.444056    -1.296459
 H     2.956443    -3.793618    -0.756186
 H     2.270347    -3.214782    -2.347304
 H     0.348865    -1.596668    -1.801664
Ir     0.909356    -1.932194    -0.291070
 O    -1.464137     0.336606    -0.326980
 C    -2.578608    -2.206426    -0.439258
 C    -1.647472    -1.009578     2.036451
 O     1.387320     1.020124     1.044707
 C     3.678576     0.309652    -0.227592
 C     1.391305     1.233601    -1.752027
 P     1.853407     0.166326    -0.334098
 P    -1.198729    -1.222822     0.272495
 C     1.654970    -2.352359     1.422527
 O     2.138443    -2.586772     2.439342
 C    -2.678089     0.921489    -0.530809
 C    -3.303616     1.646500     0.484602
 H    -2.820525     1.729377     1.459863
 C    -3.274958     0.843519    -1.791706
 H    -2.761050     0.296311    -2.584453
 C    -4.535368     2.252614     0.244082
 H    -5.019971     2.811232     1.049644
 C    -4.505165     1.451499    -2.015233
 H    -4.966701     1.374035    -3.003805
 C    -5.163807     2.161982    -1.002186
 C    -6.483463     2.828580    -1.263081
 H    -6.356182     3.737526    -1.874166
 H    -6.976422     3.126336    -0.326970
 H    -7.168339     2.164071    -1.811368
 H    -2.531227    -2.017033    -1.525362
 H    -2.239767    -3.249977    -0.321178
 C    -3.997848    -2.037310     0.093618
 H    -4.300318    -0.979948     0.058661
 H    -4.028402    -2.328134     1.156635
 C    -4.999719    -2.872681    -0.688899
 H    -5.031052    -2.562971    -1.745749
 H    -4.737531    -3.942628    -0.665559
 H    -6.016275    -2.766921    -0.280621
 H    -0.923195    -0.271945     2.421504
 H    -2.651460    -0.559365     2.106450
 C    -1.578853    -2.302567     2.840656
 H    -0.590150    -2.766628     2.701960
 H    -2.308681    -3.028756     2.443510
 C    -1.835708    -2.079077     4.322840
 H    -1.090920    -1.390584     4.752199
 H    -2.831892    -1.641700     4.497265
 H    -1.780962    -3.023168     4.885495
 C     1.382460     2.378969     1.163437
 C     0.247910     3.100190     0.784192
 H    -0.608816     2.554655     0.387886
 C     2.484832     3.051226     1.691328
 H     3.357669     2.477200     2.007999
 C     0.237906     4.485717     0.901935
 H    -0.652778     5.038914     0.590196
 C     2.458669     4.439905     1.804606
 H     3.331267     4.958088     2.212271
 C     1.342562     5.184510     1.407236
 C     1.311065     6.678874     1.549917
 H     2.324559     7.098570     1.622579
 H     0.764185     6.980363     2.459062
 H     0.806050     7.154389     0.695816
 H     3.964123     1.374061    -0.179628
 H     3.950103    -0.146139     0.739736
 C     4.389843    -0.405563    -1.369842
 H     4.108600     0.058593    -2.331166
 H     4.019890    -1.442725    -1.418377
 C     5.902961    -0.389985    -1.220820
 H     6.295670     0.639331    -1.195501
 H     6.214045    -0.885221    -0.287186
 H     6.393227    -0.914186    -2.055147
 H     1.433291     0.548158    -2.614893
 H     0.318017     1.435902    -1.602435
 C     2.179606     2.507452    -2.035904
 H     3.215155     2.247063    -2.311731
 H     2.251641     3.129183    -1.131003
 C     1.544439     3.322356    -3.152325
 H     1.465012     2.737780    -4.083080
 H     0.527314     3.641143    -2.873732
 H     2.130031     4.227778    -3.372814
