 112
scf done:    -3632.552203
 C     0.546146    -3.604678     0.585307
 H     0.871841    -4.199386    -0.275791
 H     1.268314    -3.614658     1.407820
 C    -0.860719    -3.503547     0.869461
 H    -1.561813    -4.027228     0.213340
 H    -1.202674    -3.440726     1.907360
 H     0.205507    -1.351028     1.677207
Ir    -0.138666    -1.633380     0.104731
 O     1.963199     0.804117     0.964334
 C     3.149047    -1.659142     0.305427
 C     2.505097     0.351867    -1.651061
 O    -2.576614     0.150066    -1.207653
 C    -3.284896    -0.492374     1.314519
 C    -1.329565     1.680366     0.744961
 P    -1.828874    -0.031137     0.278047
 P     1.829132    -0.452744    -0.137292
 C    -0.536723    -2.042946    -1.726132
 O    -0.773085    -2.301211    -2.822524
 C     2.766198     1.898717     0.852570
 C     3.902048     2.013880     1.654938
 H     4.151630     1.185850     2.317406
 C     2.423350     2.929518    -0.023425
 H     1.517791     2.834503    -0.622134
 C     4.697667     3.154368     1.579802
 H     5.590430     3.269541     2.197647
 C     3.218957     4.068070    -0.109653
 H     2.968590     4.885356    -0.788234
 C     4.348959     4.165925     0.692365
 F     5.115186     5.258831     0.614163
 C     3.463548    -2.607880    -0.686224
 O     2.841654    -2.423513    -1.867403
 C     2.916484    -3.398791    -2.865695
 H     2.240480    -3.071940    -3.665906
 H     3.938759    -3.491939    -3.272547
 H     2.584245    -4.384063    -2.495226
 C     3.684952    -1.850146     1.587893
 O     3.306763    -0.987888     2.560841
 C     3.643780    -1.268414     3.887912
 H     3.159337    -0.497664     4.501993
 H     4.733693    -1.222033     4.062148
 H     3.275764    -2.260476     4.202280
 C     4.564561    -2.913055     1.844079
 H     4.990939    -3.051231     2.836611
 C     4.337619    -3.669353    -0.440686
 H     4.578039    -4.387157    -1.224130
 C     4.890980    -3.802598     0.828028
 H     5.577377    -4.626906     1.034736
 C     3.890056     0.578328    -1.807886
 O     4.666143     0.262636    -0.761187
 C     6.043409     0.496859    -0.798665
 H     6.436818     0.157423     0.167841
 H     6.533956    -0.076027    -1.604227
 H     6.269044     1.570009    -0.921837
 C     1.649094     0.759958    -2.694197
 O     0.331079     0.657539    -2.477857
 C    -0.568119     0.925154    -3.521948
 H    -1.562986     0.749961    -3.102797
 H    -0.395179     0.251147    -4.377632
 H    -0.492393     1.972423    -3.861098
 C     2.169471     1.285648    -3.886811
 H     1.505822     1.578477    -4.698230
 C     4.410865     1.119686    -2.988157
 H     5.480870     1.288156    -3.099380
 C     3.541045     1.453150    -4.018856
 H     3.942764     1.871123    -4.945287
 C    -3.862610     0.505603    -1.440656
 C    -4.569037     1.423879    -0.657662
 H    -4.095936     1.887371     0.209237
 C    -4.478621    -0.083350    -2.548224
 H    -3.907789    -0.808454    -3.131583
 C    -5.884457     1.744248    -0.984998
 H    -6.456989     2.453723    -0.384667
 C    -5.789267     0.244524    -2.883412
 H    -6.286761    -0.203869    -3.745446
 C    -6.479648     1.155227    -2.093150
 F    -7.741069     1.470120    -2.405402
 C    -3.786999     0.206283     2.429520
 O    -3.372346     1.473585     2.596099
 C    -3.551131     2.119645     3.822467
 H    -2.977679     3.054337     3.762885
 H    -4.611635     2.360835     4.013553
 H    -3.163977     1.512265     4.658312
 C    -3.904760    -1.719760     0.983711
 O    -3.532463    -2.261127    -0.183879
 C    -4.102478    -3.459701    -0.622002
 H    -3.620179    -3.696327    -1.578873
 H    -5.189746    -3.354000    -0.781061
 H    -3.915747    -4.285816     0.085119
 C    -4.867744    -2.298805     1.817020
 H    -5.321008    -3.255696     1.562607
 C    -4.734417    -0.377369     3.280970
 H    -5.095252     0.160765     4.156695
 C    -5.250702    -1.629450     2.973191
 H    -5.995694    -2.080473     3.633097
 C    -0.691401     1.794569     1.993844
 O    -0.734071     0.688065     2.753124
 C     0.245185     0.478675     3.736047
 H     0.117782    -0.556550     4.077032
 H     1.251932     0.592595     3.306419
 H     0.109822     1.158351     4.596027
 C    -1.385004     2.826643    -0.071886
 O    -1.974850     2.716251    -1.277657
 C    -2.170522     3.851130    -2.067046
 H    -2.730591     3.518563    -2.950606
 H    -1.214519     4.297480    -2.394500
 H    -2.761870     4.621013    -1.541457
 C    -0.836445     4.040590     0.370616
 H    -0.886780     4.928684    -0.257441
 C    -0.110003     2.989382     2.423016
 H     0.401746     3.044672     3.383107
 C    -0.200118     4.107540     1.604059
 H     0.248194     5.050306     1.925510
