 110
scf done:    -2911.466422
 C    -1.382512    -2.392751    -3.499258
 H    -1.668730    -3.422680    -3.260817
 H    -2.184094    -1.823967    -3.980865
 C    -0.015046    -2.120352    -3.874848
 H     0.695828    -2.953016    -3.914522
 H     0.183172    -1.351623    -4.628065
 H    -0.882991     0.010972    -2.745304
Ir    -0.396372    -1.320249    -1.916270
 O    -1.974688     1.075674    -0.347940
 C    -3.713757    -1.050356    -0.850882
 C    -1.762016    -1.001491     1.381100
 O     1.526048    -0.199515     0.520769
 C     2.964013    -0.366320    -1.912503
 C     1.087396     1.833223    -1.272437
 P     1.315048    -0.004697    -1.134103
 P    -1.970552    -0.599982    -0.410591
 C     0.282412    -2.922590    -1.097658
 O     0.779854    -3.874270    -0.689336
 C    -2.938178     1.944625     0.080286
 C    -3.462132     2.839090    -0.852465
 H    -3.115293     2.778090    -1.885847
 C    -3.348491     2.016104     1.412069
 H    -2.927457     1.337194     2.152948
 C    -4.414941     3.773945    -0.459672
 H    -4.822079     4.465826    -1.202607
 C    -4.313910     2.945323     1.785201
 H    -4.646175     2.972759     2.826405
 C    -4.867302     3.840291     0.862819
 C    -5.888144     4.855067     1.288098
 H    -6.525246     5.163913     0.446763
 H    -5.405705     5.764075     1.685034
 H    -6.539647     4.460251     2.081838
 H    -3.822565    -0.677147    -1.880866
 H    -3.659438    -2.147661    -0.942858
 C    -4.862965    -0.616571     0.011579
 C    -5.117074    -1.210762     1.254357
 H    -4.499787    -2.040751     1.605479
 C    -5.715855     0.404151    -0.422597
 H    -5.534897     0.863688    -1.397670
 C    -6.164640    -0.753234     2.050714
 H    -6.347640    -1.218309     3.022549
 C    -6.775261     0.870327     0.358369
 C    -7.687294     1.947576    -0.151124
 H    -7.177956     2.587398    -0.885299
 H    -8.573042     1.512680    -0.643836
 H    -8.049831     2.587318     0.666594
 C    -6.980622     0.286082     1.613828
 H    -7.796978     0.642340     2.248259
 H    -0.994010    -0.283855     1.706422
 H    -2.697224    -0.767211     1.913676
 C    -1.298517    -2.397366     1.675002
 C    -2.033444    -3.523120     1.287236
 H    -2.972509    -3.410561     0.741498
 C    -0.093563    -2.591004     2.360762
 H     0.491410    -1.716504     2.656686
 C    -1.567565    -4.802415     1.582616
 H    -2.145619    -5.674670     1.268230
 C     0.385582    -3.865725     2.670232
 C     1.681252    -4.049118     3.405134
 H     2.122975    -3.085830     3.693564
 H     1.540159    -4.653084     4.315402
 H     2.417745    -4.576053     2.777394
 C    -0.369856    -4.973894     2.267761
 H    -0.010412    -5.982192     2.491303
 C     2.655191    -0.505787     1.216304
 C     3.202588     0.441582     2.084126
 H     2.731748     1.421246     2.166950
 C     3.227451    -1.775591     1.124316
 H     2.758774    -2.535463     0.495732
 C     4.342738     0.126212     2.814674
 H     4.762810     0.878428     3.488946
 C     4.380614    -2.068078     1.851805
 H     4.826697    -3.062419     1.762884
 C     4.967669    -1.124074     2.700503
 C     6.230563    -1.425940     3.453729
 H     7.097561    -0.926500     2.989334
 H     6.442444    -2.504323     3.470899
 H     6.174031    -1.073084     4.494623
 H     3.268479    -1.344788    -1.510944
 H     2.661936    -0.552230    -2.955106
 C     4.081260     0.631179    -1.858041
 C     4.208216     1.593265    -2.870007
 H     3.505861     1.593243    -3.708290
 C     5.018520     0.628101    -0.820834
 H     4.949380    -0.130956    -0.039800
 C     5.225514     2.542281    -2.817907
 H     5.312419     3.290253    -3.609683
 C     6.045163     1.575023    -0.751608
 C     7.031359     1.529939     0.379129
 H     6.518816     1.371573     1.340133
 H     7.739880     0.694961     0.250783
 H     7.617847     2.457324     0.443695
 C     6.132880     2.541124    -1.759648
 H     6.925531     3.293250    -1.719834
 H     1.605519     2.141844    -2.193038
 H     0.007528     1.947827    -1.434545
 C     1.528450     2.640629    -0.087896
 C     0.655427     2.805296     0.995916
 H    -0.338681     2.357886     0.951816
 C     2.794886     3.227786    -0.025225
 H     3.480458     3.113307    -0.866727
 C     1.052717     3.536469     2.110854
 H     0.361033     3.667153     2.946831
 C     3.213784     3.956384     1.093979
 C     4.600666     4.528158     1.150694
 H     5.315616     3.777394     1.526843
 H     4.951426     4.829725     0.153313
 H     4.653497     5.400088     1.818727
 C     2.325154     4.105493     2.164055
 H     2.630627     4.678008     3.044443
