  92
scf done:    -3594.696957
 C    -0.816734    -4.048709    -0.490942
 H    -1.272808    -4.540276     0.374315
 H    -1.450717    -4.059346    -1.382319
 C     0.609801    -4.059420    -0.636553
 H     1.225953    -4.557200     0.119142
 H     1.047903    -4.078541    -1.638539
 H    -0.204245    -1.862887    -1.682885
Ir    -0.037854    -2.078218    -0.065844
 O    -1.995372     0.318553    -1.290441
 C    -3.465243    -1.639108    -0.139158
 C    -2.174384     0.387199     1.441648
 O     1.999427     0.224802     1.179786
 C     3.391172    -1.702704    -0.118043
 C     2.101257     0.420622    -1.558709
 P     1.831384    -0.759372    -0.198025
 P    -1.890933    -0.735792     0.032177
 C     0.165186    -2.411710     1.819411
 O     0.295076    -2.605452     2.942863
 C    -2.658104     1.510020    -1.260757
 C    -3.987172     1.598727    -1.676291
 H    -4.508392     0.697500    -2.001545
 C    -1.982215     2.656491    -0.836742
 H    -0.943874     2.566037    -0.515170
 C    -4.641074     2.828074    -1.658339
 H    -5.680885     2.909139    -1.979021
 C    -2.630668     3.885571    -0.814634
 H    -2.112409     4.784173    -0.476821
 C    -3.962144     3.964753    -1.222822
Cl    -4.779168     5.493031    -1.189792
 C    -3.953614    -1.939995    -1.414743
 H    -3.441022    -1.548285    -2.296267
 C    -4.095735    -2.178839     0.986646
 H    -3.699200    -1.964129     1.983570
 C    -5.078184    -2.750624    -1.547495
 H    -5.461905    -2.987965    -2.542867
 C    -5.225570    -2.993408     0.865378
 C    -5.916232    -3.534260     2.083523
 H    -6.330735    -4.536153     1.899314
 H    -5.230224    -3.598342     2.940042
 H    -6.755245    -2.883587     2.381836
 C    -5.709412    -3.269635    -0.419498
 H    -6.588670    -3.909257    -0.536038
 C    -3.433584     0.936528     1.726795
 H    -4.311009     0.633650     1.152284
 C    -1.060905     0.787798     2.183946
 H    -0.080158     0.365110     1.948843
 C    -3.554898     1.877797     2.741860
 H    -4.531819     2.313091     2.965007
 C    -1.172077     1.733571     3.211648
 C     0.043387     2.148752     3.987974
 H     0.596155     1.270660     4.354649
 H     0.741879     2.719408     3.354744
 H    -0.221474     2.775267     4.851035
 C    -2.434519     2.272153     3.475331
 H    -2.545135     3.012104     4.273072
 C     2.728059     1.376008     1.225143
 C     2.124437     2.580656     0.855857
 H     1.089715     2.567210     0.510717
 C     4.052831     1.367730     1.664172
 H     4.517908     0.422784     1.947292
 C     2.839522     3.771073     0.912195
 H     2.377434     4.714319     0.617367
 C     4.773629     2.557711     1.723578
 H     5.810564     2.562657     2.063258
 C     4.165974     3.753068     1.343052
Cl     5.066385     5.232699     1.407549
 C     3.879069    -2.117867     1.127208
 H     3.379119    -1.792234     2.042575
 C     4.011375    -2.153112    -1.286274
 H     3.620218    -1.842095    -2.259414
 C     4.992755    -2.949126     1.187534
 H     5.381373    -3.267101     2.158154
 C     5.127245    -2.996818    -1.237689
 C     5.762424    -3.490534    -2.505000
 H     5.190137    -4.333804    -2.925984
 H     5.792008    -2.703684    -3.273171
 H     6.789568    -3.841776    -2.332469
 C     5.613747    -3.381294     0.016113
 H     6.489304    -4.033565     0.075168
 C     3.357226     1.001097    -1.793922
 H     4.229176     0.685701    -1.217897
 C     0.996769     0.833608    -2.306878
 H     0.024251     0.372117    -2.119841
 C     3.483533     1.989144    -2.763147
 H     4.458235     2.446794    -2.947745
 C     1.112347     1.830992    -3.283871
 C    -0.095822     2.275693    -4.055531
 H    -0.704170     1.415625    -4.371756
 H    -0.747225     2.911633    -3.433618
 H     0.182977     2.851584    -4.949168
 C     2.370773     2.401270    -3.497642
 H     2.484292     3.179617    -4.257669
