 102
scf done:    -3054.992887
 C    -0.136091    -0.882736    -3.634606
 H    -0.636787    -1.817458    -3.910966
 H    -0.620587    -0.001735    -4.066478
 C     1.298018    -0.892321    -3.484396
 H     1.837642    -1.831703    -3.648365
 H     1.861520    -0.010462    -3.804221
 H     0.480464     0.920286    -1.924836
Ir     0.368875    -0.663700    -1.553096
 O    -1.616120    -0.093315     1.289239
 C    -1.957232     1.754959    -0.485726
 C    -3.103584    -0.851225    -0.800386
 O     1.957885    -0.761346     1.538587
 C     3.580048     0.337066    -0.317397
 C     1.338354     1.663051     0.811997
 P     1.827420     0.067131     0.090397
 P    -1.535329    -0.018004    -0.391649
 C     0.309572    -2.574707    -1.338845
 O     0.259415    -3.721566    -1.331231
 C    -1.701536    -1.199082     2.074264
 C    -1.399456    -2.484792     1.629853
 H    -1.097324    -2.644984     0.598640
 C    -2.112584    -0.975867     3.402884
 C    -2.457144     0.407951     3.860570
 H    -2.656530     0.427645     4.940551
 H    -1.645669     1.117658     3.639639
 H    -3.355600     0.785259     3.344458
 C    -1.472700    -3.562430     2.509498
 H    -1.209265    -4.559413     2.150336
 C    -2.188496    -2.075736     4.258806
 H    -2.503215    -1.910974     5.293140
 C    -1.866418    -3.362991     3.828478
 H    -1.925106    -4.204083     4.522494
 C    -1.837908     2.421864    -1.713943
 H    -1.462778     1.880400    -2.585444
 C    -2.415161     2.471998     0.619815
 H    -2.483831     1.978085     1.587130
 C    -2.175037     3.760591    -1.830139
 H    -2.087105     4.287850    -2.781808
 C    -2.758762     3.818999     0.515144
 H    -3.088364     4.352465     1.406753
 C    -2.638406     4.471075    -0.713477
 O    -2.926339     5.777640    -0.907427
 C    -3.632569     6.462571     0.091193
 H    -3.042587     6.575035     1.017395
 H    -3.854577     7.460582    -0.307874
 H    -4.580213     5.952942     0.337772
 C    -4.275728    -0.561132    -0.081628
 H    -4.252916     0.183254     0.718098
 C    -3.157516    -1.804272    -1.814365
 H    -2.246880    -2.030413    -2.372987
 C    -5.460705    -1.209973    -0.374016
 H    -6.378813    -0.999412     0.177453
 C    -4.347293    -2.462795    -2.124317
 H    -4.354130    -3.203204    -2.924194
 C    -5.507430    -2.168652    -1.400752
 O    -6.702543    -2.747021    -1.613389
 C    -6.816357    -3.717388    -2.617286
 H    -6.162593    -4.585747    -2.423515
 H    -7.861406    -4.051749    -2.614138
 H    -6.575587    -3.306682    -3.613542
 C     2.242939    -2.087437     1.668163
 C     2.776379    -2.858127     0.635705
 H     2.999953    -2.400430    -0.328212
 C     1.988315    -2.645834     2.933634
 C     1.458592    -1.782895     4.034011
 H     2.129889    -0.930722     4.225530
 H     0.475548    -1.367958     3.766209
 H     1.343376    -2.355079     4.963997
 C     3.018283    -4.216260     0.839573
 H     3.420948    -4.816725     0.020851
 C     2.247668    -4.004633     3.109471
 H     2.044539    -4.451059     4.086786
 C     2.748497    -4.795672     2.074411
 H     2.935017    -5.859210     2.238803
 C     4.446638     0.909379     0.629333
 H     4.057241     1.217944     1.603012
 C     4.092383    -0.051708    -1.552668
 H     3.414233    -0.502033    -2.281009
 C     5.786487     1.087063     0.337701
 H     6.475333     1.529353     1.059797
 C     5.440999     0.125880    -1.861714
 H     5.810900    -0.186546    -2.838306
 C     6.295945     0.697304    -0.913172
 O     7.609201     0.911960    -1.106956
 C     8.183620     0.540691    -2.329370
 H     7.731009     1.084439    -3.177127
 H     9.247875     0.800651    -2.268354
 H     8.090739    -0.544060    -2.513058
 C     0.888760     1.798256     2.130527
 H     0.890788     0.929547     2.789617
 C     1.327635     2.783793    -0.021219
 H     1.667835     2.694055    -1.055899
 C     0.426747     3.023720     2.591936
 H     0.064450     3.144173     3.614855
 C     0.868879     4.015268     0.430625
 H     0.856543     4.861984    -0.254750
 C     0.397885     4.136870     1.742759
 O    -0.105943     5.276886     2.257942
 C    -0.089486     6.431537     1.463883
 H    -0.687839     6.309444     0.544488
 H    -0.524374     7.236153     2.070920
 H     0.938813     6.717400     1.180560
