  90
scf done:    -2897.991806
 C     0.000104    -3.715534    -0.012666
 H     0.536741    -4.245728    -0.805133
 H     0.397041    -3.901458     0.989236
 C    -1.395373    -3.434598    -0.172978
 H    -1.911471    -3.751526    -1.084215
 H    -2.043306    -3.413035     0.707092
 H    -0.453655    -1.507382     1.215265
Ir    -0.266964    -1.604420    -0.404500
 O     2.523190    -0.810224     1.364296
 O     2.936028    -1.309623    -1.027189
 O     1.870500     0.950741    -0.367561
 O    -1.659157     1.114720    -1.722684
 O    -3.299336    -0.117124    -0.186307
 O    -1.534097     1.266731     0.792502
 P    -1.682048     0.145660    -0.392647
 P     1.763014    -0.669033    -0.093846
 C    -0.105876    -1.814672    -2.326929
 O    -0.023887    -1.934150    -3.460939
 C     1.924573    -0.693898     2.593431
 C     0.968042     0.284149     2.860323
 H     0.624350     0.948274     2.065056
 C     2.356817    -1.594230     3.578254
 C     3.367907    -2.645454     3.239209
 H     3.037604    -3.248077     2.378950
 H     4.332517    -2.196539     2.952742
 H     3.541311    -3.315768     4.091729
 C     0.435373     0.386990     4.145021
 H    -0.316160     1.151323     4.352697
 C     1.804997    -1.465877     4.854843
 H     2.128183    -2.158093     5.637123
 C     0.855859    -0.485586     5.144553
 H     0.442145    -0.408068     6.152396
 C     4.206426    -0.857875    -1.303132
 C     5.125222    -0.562308    -0.297210
 H     4.834871    -0.675931     0.746666
 C     4.550475    -0.734115    -2.647696
 H     3.806746    -0.989089    -3.405056
 C     6.386999    -0.093022    -0.653489
 H     7.102307     0.161333     0.131885
 C     5.820287    -0.276720    -2.989584
 H     6.090331    -0.173898    -4.043308
 C     6.739009     0.055346    -1.994565
 H     7.730881     0.424592    -2.263789
 C     2.956480     1.788843    -0.225705
 C     3.551332     2.293472    -1.380606
 H     3.164594     1.985421    -2.352873
 C     3.413589     2.163357     1.035979
 H     2.923152     1.780136     1.931014
 C     4.641705     3.150061    -1.270609
 H     5.119261     3.530874    -2.176129
 C     4.505808     3.024017     1.132917
 H     4.870939     3.313729     2.121083
 C     5.127342     3.513452    -0.014151
 H     5.986234     4.182791     0.069615
 C    -2.312131     2.332407    -1.762535
 C    -3.688931     2.379761    -1.963073
 H    -4.246166     1.449502    -2.078858
 C    -1.542584     3.495497    -1.612189
 C    -0.065989     3.404082    -1.392826
 H     0.158414     2.909704    -0.436113
 H     0.413814     2.790868    -2.169845
 H     0.397868     4.399319    -1.390584
 C    -4.334723     3.613609    -2.002087
 H    -5.415634     3.653775    -2.153191
 C    -2.217562     4.719547    -1.662287
 H    -1.639389     5.640564    -1.548838
 C    -3.598133     4.785707    -1.848098
 H    -4.097308     5.756883    -1.878194
 C    -3.960759    -1.175276    -0.747938
 C    -4.831000    -1.898133     0.066049
 H    -4.937866    -1.601775     1.111101
 C    -3.791161    -1.513274    -2.091293
 H    -3.114123    -0.930326    -2.718960
 C    -5.530873    -2.975484    -0.469443
 H    -6.212030    -3.544893     0.167351
 C    -4.491068    -2.600278    -2.612626
 H    -4.353587    -2.871315    -3.662028
 C    -5.359091    -3.335056    -1.806986
 H    -5.904435    -4.185748    -2.221062
 C    -2.462856     1.584662     1.758040
 C    -2.737778     0.681606     2.783310
 H    -2.237430    -0.288628     2.790367
 C    -3.074954     2.833672     1.711987
 H    -2.848279     3.509302     0.884981
 C    -3.640232     1.043231     3.780885
 H    -3.859023     0.340043     4.588124
 C    -3.971882     3.184477     2.719316
 H    -4.455356     4.163715     2.688791
 C    -4.257794     2.294068     3.753762
 H    -4.963830     2.573759     4.538790
