  52
scf done:    -1950.641283
 C    -4.260761     0.962504    -0.369971
 H    -4.790970     1.174620     0.564338
 H    -4.279975     1.798690    -1.075624
 C    -4.273873    -0.384504    -0.884556
 H    -4.812914    -1.157492    -0.326946
 H    -4.299730    -0.537130    -1.967517
 H    -2.050305     0.675330    -1.645981
Ir    -2.309853     0.084823    -0.133871
 O     0.626942     1.500794    -0.498353
 C    -1.196456     3.430108     0.136249
 C    -0.142995     1.706875     2.137228
 O     0.498301    -1.544738     0.419469
 C    -1.275184    -3.268138    -0.734623
 C     0.068674    -1.312516    -2.298841
 P    -0.769544    -1.515860    -0.697750
 P    -0.773521     1.682040     0.426993
 C    -2.667973    -0.606684     1.620754
 O    -2.861699    -1.024575     2.673128
 C     1.776486     2.208546    -0.302316
 C     2.746918     1.734102     0.585505
 H     2.554242     0.813759     1.138985
 C     2.017038     3.371217    -1.038967
 H     1.260783     3.716729    -1.745917
 C     3.946157     2.422848     0.744956
 H     4.718567     2.068694     1.430002
 C     3.214860     4.064107    -0.882948
 H     3.425842     4.972325    -1.450376
 C     4.164377     3.582780     0.010640
 F     5.311207     4.243710     0.161468
 H    -2.064918     3.670437     0.767056
 H    -0.366654     4.112683     0.374186
 H    -1.496461     3.547518    -0.914332
 H     0.628647     2.472690     2.303867
 H    -1.001637     1.902048     2.797039
 H     0.254548     0.709996     2.374637
 C     1.631203    -2.291616     0.277537
 C     2.725752    -1.779741    -0.426103
 H     2.647245    -0.793010    -0.884677
 C     1.723669    -3.543721     0.890856
 H     0.869500    -3.921048     1.455862
 C     3.902097    -2.517708    -0.524326
 H     4.769359    -2.135475    -1.065738
 C     2.898047    -4.286006     0.795737
 H     2.993876    -5.264236     1.270342
 C     3.973073    -3.764696     0.085658
 F     5.098078    -4.472806    -0.006820
 H    -0.441542    -3.944388    -0.978141
 H    -1.703577    -3.537199     0.241279
 H    -2.065580    -3.368449    -1.493002
 H     0.500560    -0.302958    -2.327901
 H     0.842612    -2.073421    -2.475747
 H    -0.705441    -1.381300    -3.076851
