  64
scf done:    -2107.760095
 C     3.379449    -2.502339    -0.472881
 H     3.819925    -2.953151     0.422726
 H     2.982598    -3.241355    -1.176336
 C     3.959617    -1.290068    -0.996164
 H     4.823769    -0.855809    -0.482040
 H     3.983876    -1.140859    -2.079716
 H     1.459951    -1.220212    -1.605021
Ir     2.043218    -0.856225    -0.109827
 O    -1.253960    -0.878479    -0.185088
 C    -0.242537    -3.472378    -0.074851
 C    -0.476689    -1.809884     2.275295
 O     0.381410     1.857769     0.738932
 C     2.569176     2.634597    -0.646103
 C     0.301663     1.490476    -2.050317
 P     1.324437     1.290145    -0.537483
 P     0.025172    -1.747983     0.512313
 C     2.805535    -0.436819     1.598120
 O     3.275440    -0.171317     2.612713
 C    -2.528512    -1.335914    -0.336882
 C    -3.470475    -1.183107     0.684720
 H    -3.173809    -0.711488     1.622818
 C    -2.910895    -1.901850    -1.556342
 H    -2.169658    -1.987288    -2.353011
 C    -4.778363    -1.625892     0.501406
 H    -5.530085    -1.519435     1.285549
 C    -4.215810    -2.346729    -1.744174
 H    -4.535253    -2.795695    -2.686357
 C    -5.133722    -2.209543    -0.708629
 F    -6.383125    -2.635899    -0.884879
 H     0.744755    -3.938130     0.078768
 C    -1.345681    -4.331272     0.526553
 H    -2.343934    -3.889168     0.401537
 H    -1.185170    -4.505633     1.600644
 H    -0.342999    -3.380482    -1.169016
 H    -1.359342    -5.317847     0.038119
 H     0.257028    -2.484071     2.751047
 C    -0.494777    -0.453136     2.960559
 H    -1.200108     0.235604     2.473271
 H     0.489373     0.032276     2.926854
 H    -1.457145    -2.307476     2.349489
 H    -0.789879    -0.557535     4.015392
 C    -0.595078     2.802862     0.658641
 C    -1.899651     2.419570     0.334103
 H    -2.096903     1.367533     0.125974
 C    -0.312279     4.139417     0.950060
 H     0.704830     4.419512     1.229558
 C    -2.912051     3.372096     0.270239
 H    -3.936324     3.096151     0.012921
 C    -1.322809     5.096206     0.888832
 H    -1.127059     6.146921     1.110464
 C    -2.609897     4.701673     0.542842
 F    -3.577408     5.616793     0.480797
 H     3.055652     2.650458     0.342841
 C     3.590113     2.396456    -1.747912
 H     3.126857     2.415990    -2.746735
 H     4.069883     1.414534    -1.623473
 H     2.050618     3.599717    -0.770205
 H     4.372512     3.169826    -1.731180
 H    -0.612830     0.911380    -1.843560
 C     0.002699     2.882861    -2.585133
 H     0.922595     3.426590    -2.847367
 H    -0.560204     3.498776    -1.870921
 H     0.853661     0.892901    -2.793919
 H    -0.601550     2.808787    -3.502519
