 106
scf done:    -2459.343574
 C     2.298196     2.790498    -1.740877
 H     3.100300     3.306610    -1.202543
 H     2.641043     2.302717    -2.658800
 C     0.967946     3.345575    -1.703402
 H     0.800671     4.267261    -1.135304
 H     0.332762     3.267379    -2.590718
 H     0.670225     0.829994    -1.949008
Ir     1.037218     1.540291    -0.523997
 O     2.377623    -1.516930    -1.300651
 C     4.144113     0.018667    -0.124855
 C     2.059101    -1.326030     1.379255
 O    -0.997776    -0.329479     1.327527
 C    -2.191495     2.067072     0.822523
 C    -2.045983     0.023763    -1.221045
 P    -1.051563     0.829481     0.092247
 P     2.348496    -0.314300    -0.122526
 C     1.379285     2.504686     1.101571
 O     1.534297     3.111412     2.066180
 C     1.266261    -2.033998    -1.892613
 C     0.861049    -1.564911    -3.142831
 H     1.419970    -0.749999    -3.603755
 C     0.562297    -3.080675    -1.291495
 H     0.895173    -3.459770    -0.323585
 C    -0.236460    -2.139439    -3.778774
 H    -0.541317    -1.762293    -4.758948
 C    -0.533906    -3.645334    -1.939224
 H    -1.068147    -4.472348    -1.462043
 C    -0.955766    -3.188469    -3.194048
 C    -2.110441    -3.835986    -3.901865
 H    -1.814639    -4.805172    -4.336529
 H    -2.484503    -3.206515    -4.720938
 H    -2.948250    -4.030505    -3.215170
 H     4.297865     0.819107     0.619085
 H     4.320486     0.487195    -1.105857
 C     5.069294    -1.163355     0.116937
 H     4.887191    -1.568880     1.126586
 H     4.817549    -1.971556    -0.591412
 C     6.560414    -0.833355    -0.005295
 H     6.772194     0.009153     0.680344
 C     7.400795    -2.023894     0.442698
 H     7.163402    -2.319749     1.476649
 H     8.477275    -1.797509     0.395554
 H     7.215672    -2.897545    -0.204412
 C     6.945567    -0.399907    -1.415566
 H     8.021842    -0.177431    -1.480538
 H     6.404765     0.502259    -1.738095
 H     6.725191    -1.199670    -2.142431
 H     2.735606    -2.196308     1.349220
 H     1.025297    -1.688547     1.282619
 C     2.212557    -0.537872     2.671022
 H     3.215027    -0.076315     2.712506
 H     1.488941     0.294022     2.671186
 C     2.008588    -1.364837     3.944053
 H     2.724072    -2.208785     3.911767
 C     2.333617    -0.521455     5.171658
 H     3.363371    -0.132712     5.134672
 H     2.225436    -1.103519     6.099993
 H     1.654414     0.344638     5.239214
 C     0.601076    -1.941776     4.040963
 H     0.479934    -2.533522     4.961486
 H     0.355666    -2.597756     3.192808
 H    -0.151422    -1.137135     4.056121
 C    -2.049511    -1.093526     1.740758
 C    -2.256847    -2.350961     1.168607
 H    -1.581682    -2.689325     0.381589
 C    -2.893211    -0.654267     2.760742
 H    -2.704342     0.312602     3.230515
 C    -3.327862    -3.133968     1.583341
 H    -3.485377    -4.111125     1.117426
 C    -3.962746    -1.450679     3.166601
 H    -4.621468    -1.092825     3.962684
 C    -4.210296    -2.696393     2.580643
 C    -5.380835    -3.539832     2.995972
 H    -6.141251    -3.584895     2.198910
 H    -5.867463    -3.138496     3.895887
 H    -5.075176    -4.575703     3.209471
 H    -1.698026     2.420198     1.744215
 H    -3.126329     1.567028     1.118638
 C    -2.447035     3.233959    -0.121578
 H    -1.474444     3.635005    -0.449621
 H    -2.946523     2.872682    -1.039427
 C    -3.287111     4.363150     0.479122
 H    -2.773868     4.700727     1.399425
 C    -3.344771     5.542822    -0.484325
 H    -2.335895     5.900618    -0.741749
 H    -3.904849     6.387631    -0.054309
 H    -3.845367     5.255790    -1.424319
 C    -4.689446     3.903826     0.863401
 H    -5.279565     4.734312     1.280947
 H    -4.673335     3.100971     1.615920
 H    -5.230400     3.522832    -0.019654
 H    -1.552266    -0.948026    -1.392910
 H    -1.823756     0.614804    -2.122826
 C    -3.547337    -0.141085    -1.007887
 H    -3.761050    -0.443472     0.027518
 H    -4.053520     0.830441    -1.149314
 C    -4.185061    -1.175041    -1.937762
 H    -3.631632    -2.121310    -1.788843
 C    -5.636755    -1.417420    -1.544215
 H    -5.713405    -1.744752    -0.495132
 H    -6.102305    -2.189554    -2.176639
 H    -6.233526    -0.496070    -1.651774
 C    -4.062621    -0.784005    -3.405417
 H    -4.529302    -1.537566    -4.058609
 H    -3.011607    -0.681613    -3.714650
 H    -4.566221     0.178824    -3.596330
