 106
scf done:    -2459.336083
 C    -0.791341    -2.966228    -2.278387
 H    -1.325659    -3.818221    -1.844436
 H    -1.340336    -2.485123    -3.094276
 C     0.649333    -3.008609    -2.341443
 H     1.170823    -3.891261    -1.956077
 H     1.149670    -2.555904    -3.202949
 H     0.024049    -0.520308    -2.113239
Ir     0.023882    -1.580739    -0.851266
 O    -1.197127     1.321378     0.148169
 C    -3.113970    -0.106953    -1.295917
 C    -2.495972    -0.687513     1.474801
 O     1.549256    -0.138187     1.656653
 C     3.455567    -1.074635    -0.103923
 C     1.984754     1.341439    -0.668797
 P     1.774420    -0.349312     0.002957
 P    -1.708145    -0.265282    -0.124581
 C     0.080659    -2.843916     0.587173
 O     0.130690    -3.584876     1.464745
 C    -1.968215     2.446601     0.103018
 C    -2.630304     2.875833     1.256967
 H    -2.515712     2.295368     2.173905
 C    -2.037426     3.184501    -1.090215
 C    -1.263280     2.780836    -2.311087
 H    -1.913125     2.736395    -3.198527
 H    -0.471754     3.517215    -2.526033
 H    -0.779006     1.804506    -2.183902
 C    -3.421675     4.018903     1.224188
 H    -3.944596     4.344991     2.126162
 C    -2.845714     4.327795    -1.095584
 H    -2.924507     4.908162    -2.019393
 C    -3.541419     4.741628     0.037254
 H    -4.166341     5.636527    -0.002369
 H    -2.703431     0.409511    -2.178707
 H    -3.275636    -1.146734    -1.629148
 C    -4.424338     0.524476    -0.841821
 H    -4.866485    -0.075906    -0.028451
 H    -4.247389     1.524542    -0.419343
 C    -5.431261     0.645916    -1.977429
 H    -5.633912    -0.353268    -2.404661
 H    -4.980456     1.236002    -2.796243
 C    -6.739967     1.296648    -1.552333
 H    -7.186466     0.708595    -0.730785
 H    -6.520861     2.290362    -1.122961
 C    -7.742635     1.435787    -2.686160
 H    -8.676163     1.910711    -2.348183
 H    -8.004387     0.453570    -3.111689
 H    -7.335278     2.049494    -3.505815
 H    -1.668914    -0.666620     2.204307
 H    -3.214859     0.095989     1.763524
 C    -3.156588    -2.061937     1.449471
 H    -4.114323    -2.004333     0.903682
 H    -2.528851    -2.763658     0.874013
 C    -3.393853    -2.636538     2.838594
 H    -4.013933    -1.937379     3.429076
 H    -2.425133    -2.703101     3.365443
 C    -4.049498    -4.009724     2.818531
 H    -5.011580    -3.945831     2.279430
 H    -3.419089    -4.696326     2.226533
 C    -4.276033    -4.589825     4.205070
 H    -4.746714    -5.583518     4.158272
 H    -4.929959    -3.939988     4.808959
 H    -3.325315    -4.697516     4.751459
 C     2.382495     0.465980     2.556954
 C     3.469585    -0.241963     3.076339
 H     3.638425    -1.265418     2.738959
 C     2.083007     1.761527     3.013633
 C     0.896819     2.514711     2.493227
 H     1.195069     3.248188     1.725114
 H     0.167986     1.841292     2.026928
 H     0.405134     3.078977     3.299020
 C     4.305582     0.346945     4.019842
 H     5.155777    -0.212997     4.416228
 C     2.936612     2.326702     3.968062
 H     2.716325     3.334281     4.332429
 C     4.043791     1.642267     4.462574
 H     4.691508     2.113404     5.205233
 H     4.178548    -0.451046     0.446982
 H     3.396836    -2.048227     0.410649
 C     3.888550    -1.274527    -1.550943
 H     3.094313    -1.819532    -2.087289
 H     3.979707    -0.295553    -2.053971
 C     5.206204    -2.025517    -1.679061
 H     5.113819    -3.006414    -1.178354
 H     5.997884    -1.482508    -1.130822
 C     5.641394    -2.235569    -3.122543
 H     4.842266    -2.772328    -3.663545
 H     5.729409    -1.253273    -3.620039
 C     6.951147    -2.995531    -3.254627
 H     7.238425    -3.131383    -4.308298
 H     6.879729    -3.995911    -2.798093
 H     7.774727    -2.463734    -2.751175
 H     1.912238     1.209190    -1.761558
 H     1.059418     1.861039    -0.376165
 C     3.226602     2.139123    -0.297049
 H     3.360336     2.160236     0.796001
 H     4.127073     1.644955    -0.700156
 C     3.168166     3.569181    -0.817769
 H     2.256249     4.058988    -0.429029
 H     3.051623     3.556731    -1.917167
 C     4.386043     4.400955    -0.441964
 H     4.495459     4.398598     0.657055
 H     5.294545     3.908568    -0.831887
 C     4.320355     5.832214    -0.949359
 H     5.212584     6.408165    -0.660591
 H     3.440017     6.358394    -0.546097
 H     4.245559     5.863774    -2.048385
