 110
scf done:    -2911.469561
 C     0.820749     0.665967    -3.520637
 H     1.542317     1.471785    -3.692227
 H     1.134433    -0.292828    -3.943338
 C    -0.584119     0.986726    -3.506076
 H    -0.890063     2.025709    -3.669965
 H    -1.295132     0.260442    -3.912233
 H    -0.284295    -1.011926    -1.945218
Ir     0.060756     0.526338    -1.505957
 O     1.241484    -0.663364     1.426127
 C     2.215947    -2.165714    -0.687422
 C     3.309895     0.432395    -0.104267
 O    -2.271355     1.814644     0.584459
 C    -3.398205     0.472886    -1.372071
 C    -2.248190    -0.890587     0.942045
 P    -1.904575     0.437284    -0.302656
 P     1.689462    -0.433010    -0.203840
 C     0.358520     2.405706    -1.178400
 O     0.403451     3.546693    -1.092420
 C     1.962255    -1.348187     2.366926
 C     3.079607    -0.759826     2.968191
 H     3.364004     0.254932     2.690596
 C     1.523702    -2.624443     2.768933
 C     0.253916    -3.224459     2.246283
 H    -0.613608    -2.866025     2.824911
 H     0.054325    -2.960971     1.200999
 H     0.269297    -4.319855     2.327742
 C     3.817529    -1.457549     3.919433
 H     4.694318    -0.989267     4.372120
 C     2.288587    -3.304619     3.724149
 H     1.967284    -4.303236     4.032632
 C     3.431778    -2.744149     4.288222
 H     4.008662    -3.304874     5.026806
 H     1.721466    -2.835289     0.029477
 H     1.735134    -2.331781    -1.659951
 C     3.688269    -2.448962    -0.735169
 C     4.349974    -2.926564     0.401817
 H     3.775382    -3.124375     1.309663
 C     4.427757    -2.202722    -1.911879
 C     3.756402    -1.717087    -3.164302
 H     3.155133    -0.810324    -2.994160
 H     3.063160    -2.474064    -3.567641
 H     4.494028    -1.491904    -3.946428
 C     5.725050    -3.143752     0.398975
 H     6.217720    -3.512251     1.301649
 C     5.808420    -2.425800    -1.896601
 H     6.383370    -2.232759    -2.806586
 C     6.460327    -2.886504    -0.754875
 H     7.540757    -3.048253    -0.770804
 H     3.922287    -0.049686     0.674004
 H     3.797037     0.167014    -1.050381
 C     3.239090     1.920882     0.059363
 C     2.603643     2.477640     1.175293
 H     2.120365     1.821668     1.900806
 C     3.799489     2.776589    -0.911693
 C     4.460226     2.238096    -2.149325
 H     3.748859     1.666386    -2.766869
 H     5.299117     1.564022    -1.912502
 H     4.854200     3.055471    -2.768543
 C     2.528333     3.854731     1.355707
 H     2.002555     4.256389     2.223704
 C     3.718353     4.158651    -0.712897
 H     4.150046     4.824463    -1.465257
 C     3.093812     4.700638     0.407085
 H     3.036246     5.784834     0.528491
 C    -1.549704     2.404584     1.578239
 C    -0.710463     1.697587     2.437151
 H    -0.526606     0.636687     2.280558
 C    -1.736976     3.791257     1.728810
 C    -2.594806     4.538083     0.755674
 H    -2.207324     4.423493    -0.268823
 H    -3.628441     4.157916     0.749619
 H    -2.623078     5.609168     0.997108
 C    -0.077908     2.358540     3.489585
 H     0.572376     1.791920     4.160654
 C    -1.091971     4.425420     2.791164
 H    -1.235074     5.501698     2.920824
 C    -0.274651     3.722689     3.677777
 H     0.211306     4.243760     4.505714
 H    -3.322384     1.455523    -1.867214
 H    -3.180307    -0.270047    -2.150342
 C    -4.756702     0.266119    -0.761478
 C    -5.232490     1.156600     0.210855
 H    -4.587128     1.976483     0.528045
 C    -5.585667    -0.795100    -1.185533
 C    -5.154585    -1.761682    -2.249832
 H    -4.233285    -2.293974    -1.969713
 H    -4.962714    -1.249875    -3.206919
 H    -5.931693    -2.517152    -2.426765
 C    -6.496397     1.007804     0.775950
 H    -6.841484     1.716311     1.532607
 C    -6.851179    -0.930303    -0.602746
 H    -7.491874    -1.754215    -0.928677
 C    -7.311023    -0.045402     0.368761
 H    -8.304976    -0.177847     0.802788
 H    -1.293182    -1.031416     1.470665
 H    -2.960415    -0.446449     1.648929
 C    -2.745417    -2.213357     0.426208
 C    -2.021328    -2.906518    -0.552227
 H    -1.120671    -2.446883    -0.964684
 C    -3.911240    -2.801285     0.962593
 C    -4.709517    -2.131408     2.042060
 H    -5.072289    -1.141845     1.726033
 H    -4.111112    -1.987228     2.956424
 H    -5.587009    -2.735177     2.309321
 C    -2.434236    -4.152119    -1.018835
 H    -1.850737    -4.666712    -1.785824
 C    -4.313902    -4.050685     0.477155
 H    -5.220202    -4.503714     0.888080
 C    -3.592010    -4.727130    -0.503112
 H    -3.933940    -5.701826    -0.859244
