  80
scf done:    -3286.267997
 C     1.465931    -1.841770     3.156758
 H     1.560433    -1.158988     4.007440
 H     0.687355    -2.598647     3.287611
 C     2.632008    -2.153549     2.380879
 H     3.590625    -1.698711     2.648140
 H     2.729667    -3.146149     1.933248
 H     0.642614    -2.281987     0.779872
Ir     1.324147    -0.866589     1.236482
 O    -1.369052    -0.318016    -0.538911
 O    -1.901340    -1.370753     1.693782
 O    -1.537897     1.076551     1.604669
 O     1.498326     0.275821    -1.995290
 O     3.715301    -0.553287    -1.027450
 O     1.977435    -2.120018    -1.837352
 P     2.130828    -0.820771    -0.886474
 P    -0.866943    -0.305034     1.054870
 C     2.233156     0.713984     1.859160
 O     2.819623     1.621547     2.244457
 C    -2.677784    -0.365478    -0.924562
 C    -3.191299    -1.563902    -1.422639
 H    -2.546939    -2.444003    -1.450122
 C    -3.486674     0.770816    -0.864186
 H    -3.072048     1.697561    -0.468671
 C    -4.509304    -1.630489    -1.863327
 H    -4.920503    -2.562285    -2.254766
 C    -4.808145     0.706457    -1.296794
 H    -5.450957     1.587057    -1.252650
 C    -5.314285    -0.493673    -1.794636
Cl    -6.958681    -0.573380    -2.334840
 C    -3.094830    -1.084750     2.445200
 H    -3.496802    -0.116186     2.110208
 C    -2.738046    -1.000731     3.915040
 H    -2.010880    -0.196016     4.091268
 H    -2.295761    -1.949377     4.255552
 H    -3.634448    -0.795219     4.519369
 C    -4.086841    -2.181897     2.129006
 H    -4.318966    -2.195819     1.055139
 H    -3.676796    -3.163200     2.412338
 H    -5.022087    -2.020379     2.685248
 C    -0.774357     2.262521     1.877730
 H     0.119984     2.254216     1.231043
 C    -0.358351     2.261150     3.334476
 H     0.192526     1.342096     3.580288
 H    -1.244871     2.319504     3.984726
 H     0.292216     3.120986     3.551175
 C    -1.639277     3.448647     1.514518
 H    -1.916783     3.419821     0.452368
 H    -2.556969     3.455062     2.122499
 H    -1.094127     4.387451     1.686340
 C     1.202016     1.562778    -1.683434
 C    -0.009225     2.088749    -2.140051
 H    -0.685834     1.441896    -2.699655
 C     2.076861     2.367741    -0.949230
 H     3.028091     1.959348    -0.605151
 C    -0.340708     3.411441    -1.872751
 H    -1.281697     3.831284    -2.232607
 C     1.737655     3.687937    -0.660805
 H     2.411489     4.315911    -0.076074
 C     0.531194     4.204549    -1.124944
Cl     0.097685     5.844242    -0.758109
 C     4.404299    -0.609744    -2.295617
 H     3.649785    -0.589894    -3.099153
 C     5.177092    -1.909712    -2.359010
 H     4.489120    -2.761281    -2.271484
 H     5.907956    -1.960313    -1.537577
 H     5.718242    -1.989708    -3.313923
 C     5.276742     0.622532    -2.392054
 H     4.668113     1.537859    -2.371629
 H     5.987367     0.655285    -1.552096
 H     5.848905     0.613029    -3.331644
 C     0.688039    -2.714076    -2.073506
 H    -0.035024    -2.252866    -1.380161
 C     0.804445    -4.188863    -1.761511
 H     1.097664    -4.332768    -0.711766
 H     1.563384    -4.659872    -2.405144
 H    -0.157319    -4.696696    -1.929100
 C     0.272038    -2.411900    -3.497580
 H     0.230077    -1.325802    -3.656400
 H     0.991142    -2.843897    -4.210626
 H    -0.721881    -2.835924    -3.706411
