  84
scf done:    -4135.117336
 C    -1.061069    -0.444455    -4.327403
 H    -1.700404    -1.260664    -4.676420
 H    -1.470880     0.549340    -4.526275
 C     0.359574    -0.625165    -4.299561
 H     0.783520    -1.577490    -4.632063
 H     1.016818     0.231567    -4.470655
 H    -0.161817     0.951187    -2.358873
Ir    -0.401877    -0.664251    -2.277540
 O    -2.582745     1.401243    -0.702905
 O    -3.618304    -0.720898    -1.456046
 O    -2.043662    -0.742516     0.591242
 O     1.868723    -1.924659    -0.162342
 O     2.740596     0.073595    -1.502901
 O     1.139604     0.471729     0.413412
 P     1.349264    -0.530021    -0.872075
 P    -2.163441    -0.180565    -0.958822
 C    -0.624508    -2.592457    -2.270833
 O    -0.737271    -3.729341    -2.257348
 C    -1.669319     2.392401    -0.443195
 C    -1.411934     3.337118    -1.435214
 H    -1.908474     3.239970    -2.401797
 C    -1.037313     2.476829     0.795837
 H    -1.224604     1.719966     1.558440
 C    -0.529643     4.383002    -1.184225
 H    -0.321362     5.132592    -1.949080
 C    -0.150471     3.518502     1.049952
 H     0.357718     3.589108     2.012656
 C     0.094658     4.467675     0.060128
Cl     1.187499     5.777645     0.378268
 C    -4.862642    -0.507460    -0.898634
 C    -5.481990     0.737132    -0.987994
 H    -4.969059     1.557221    -1.489259
 C    -5.503325    -1.580198    -0.281941
 H    -5.000238    -2.547037    -0.239588
 C    -6.736869     0.920808    -0.412560
 H    -7.245634     1.885335    -0.457314
 C    -6.756006    -1.399605     0.293430
 H    -7.274208    -2.216848     0.797610
 C    -7.354230    -0.145917     0.228726
 F    -8.549495     0.033813     0.787586
 C    -2.997742    -0.828913     1.579144
 C    -3.140481    -2.064920     2.208078
 H    -2.518046    -2.899040     1.878556
 C    -3.772038     0.262008     1.977699
 H    -3.661394     1.224175     1.479361
 C    -4.079594    -2.225888     3.222659
 H    -4.215495    -3.184290     3.726768
 C    -4.719485     0.099593     2.983590
 H    -5.353059     0.929590     3.300373
 C    -4.865479    -1.141244     3.592454
 F    -5.774793    -1.293087     4.552668
 C     3.172912    -2.277093     0.088146
 C     3.675137    -2.218554     1.386713
 H     3.034005    -1.877365     2.199538
 C     3.974353    -2.726580    -0.961248
 H     3.560368    -2.770968    -1.969739
 C     4.993957    -2.588865     1.633769
 H     5.401294    -2.541628     2.644707
 C     5.293552    -3.095167    -0.717647
 H     5.933933    -3.440670    -1.530526
 C     5.800564    -3.016987     0.580057
Cl     7.446307    -3.460675     0.884693
 C     3.530159     1.056703    -0.951393
 C     4.788909     0.727722    -0.452744
 H     5.128560    -0.307787    -0.486380
 C     3.073486     2.374673    -0.920576
 H     2.080457     2.610708    -1.306781
 C     5.596678     1.724141     0.090612
 H     6.586620     1.495036     0.488726
 C     3.874916     3.371079    -0.370788
 H     3.528074     4.403977    -0.315212
 C     5.127632     3.031960     0.129569
 F     5.896229     3.983325     0.657879
 C     1.432689     0.269997     1.735653
 C     2.460258     1.001831     2.330200
 H     3.044566     1.696626     1.726539
 C     0.662333    -0.618218     2.487218
 H    -0.145680    -1.163100     1.998722
 C     2.732891     0.828521     3.684735
 H     3.533101     1.384542     4.176202
 C     0.937196    -0.795800     3.840588
 H     0.351806    -1.484490     4.452216
 C     1.972415    -0.072038     4.422565
 F     2.236472    -0.239852     5.716859
