 100
scf done:    -3299.709789
 C     2.703999     2.638095    -1.930555
 H     3.559852     3.096629    -1.424083
 H     2.984340     2.078634    -2.828464
 C     1.433977     3.318031    -1.902119
 H     1.361899     4.273877    -1.372059
 H     0.778375     3.261133    -2.776000
 H     0.891352     0.836754    -2.028252
Ir     1.349274     1.567715    -0.642632
 O     2.476937    -1.597136    -1.336592
 C     4.307717    -0.202609    -0.060170
 C     2.024999    -1.354102     1.317160
 O    -0.814908    -0.021095     1.313835
 C    -1.828379     2.424720     0.690842
 C    -1.839312     0.266961    -1.248616
 P    -0.787782     1.074874     0.015336
 P     2.494782    -0.379515    -0.163463
 C     1.805299     2.574388     0.930509
 O     2.032542     3.210704     1.860329
 C     1.337427    -2.032620    -1.934483
 C     0.956938    -1.511134    -3.174353
 H     1.574433    -0.737152    -3.630310
 C     0.567541    -3.040293    -1.345566
 H     0.889080    -3.471034    -0.395992
 C    -0.191301    -1.973792    -3.809034
 H    -0.495459    -1.565833    -4.774164
 C    -0.583255    -3.507998    -1.976732
 H    -1.183158    -4.300992    -1.526718
 C    -0.963647    -2.963973    -3.202235
Cl    -2.402049    -3.535391    -3.984472
 H     4.596807     0.275181    -1.011033
 H     4.476898     0.561163     0.718951
 C     5.121942    -1.461424     0.196114
 H     4.868772    -1.877395     1.186585
 H     4.840243    -2.229979    -0.542573
 C     6.623121    -1.213953     0.132258
 H     6.897518    -0.428492     0.860049
 H     6.882596    -0.803799    -0.860602
 C     7.455072    -2.461163     0.396606
 H     7.192637    -2.866879     1.389929
 H     7.170960    -3.243862    -0.328891
 C     8.953192    -2.214188     0.324390
 H     9.526836    -3.132761     0.519988
 H     9.270023    -1.460491     1.063224
 H     9.249116    -1.842723    -0.669920
 H     0.998657    -1.692237     1.108202
 H     2.667985    -2.246761     1.385036
 C     2.012284    -0.547973     2.606603
 H     3.040697    -0.278779     2.906713
 H     1.480345     0.397876     2.420614
 C     1.309463    -1.277165     3.742993
 H     1.856702    -2.204353     3.993405
 H     0.313945    -1.599439     3.389937
 C     1.137951    -0.427870     4.993689
 H     2.129743    -0.115577     5.366061
 H     0.615953     0.505766     4.718173
 C     0.369362    -1.135766     6.097577
 H     0.256380    -0.499885     6.988769
 H     0.879540    -2.060640     6.411815
 H    -0.640500    -1.417789     5.757694
 C    -1.892246    -0.727001     1.747555
 C    -2.166505    -1.982514     1.197791
 H    -1.519001    -2.369101     0.409442
 C    -2.700258    -0.227375     2.772027
 H    -2.455883     0.737370     3.219857
 C    -3.272112    -2.708875     1.625556
 H    -3.505048    -3.680020     1.185781
 C    -3.805915    -0.952828     3.207221
 H    -4.449613    -0.565829     3.998756
 C    -4.096785    -2.184133     2.620569
Cl    -5.492121    -3.073124     3.134264
 H    -2.800265     2.018487     1.016733
 H    -1.301506     2.781869     1.592138
 C    -2.013331     3.564678    -0.301826
 H    -1.022030     3.893769    -0.655281
 H    -2.544042     3.197258    -1.198051
 C    -2.774558     4.745987     0.282573
 H    -2.242029     5.112113     1.179176
 H    -3.765166     4.408904     0.639172
 C    -2.953831     5.893311    -0.701647
 H    -1.960866     6.218655    -1.058817
 H    -3.484416     5.522016    -1.596396
 C    -3.703439     7.079292    -0.116924
 H    -3.816978     7.890818    -0.851488
 H    -3.175546     7.493663     0.757083
 H    -4.712862     6.789338     0.216935
 H    -1.599170     0.793322    -2.186000
 H    -1.394841    -0.734640    -1.374801
 C    -3.347400     0.180062    -1.032315
 H    -3.587248    -0.021200     0.022884
 H    -3.813321     1.153045    -1.264162
 C    -3.974901    -0.913426    -1.883951
 H    -3.459566    -1.866315    -1.670109
 H    -3.780224    -0.713961    -2.953006
 C    -5.466677    -1.097114    -1.653419
 H    -5.638478    -1.312542    -0.583334
 H    -5.991007    -0.146175    -1.856091
 C    -6.065542    -2.207177    -2.502070
 H    -7.141282    -2.334435    -2.308001
 H    -5.571432    -3.171073    -2.300216
 H    -5.940874    -1.999291    -3.576896
