  84
scf done:    -3414.559688
 C     0.851859    -4.337023    -0.192987
 H     1.524026    -4.727826    -0.962548
 H     1.212064    -4.498056     0.826549
 C    -0.558422    -4.301124    -0.441779
 H    -0.941281    -4.669430    -1.398358
 H    -1.257093    -4.428928     0.389374
 H    -0.082213    -2.300730     1.075045
Ir     0.231182    -2.291279    -0.529616
 O     2.324866    -0.627990     1.564192
 O     3.457830    -1.520494    -0.451092
 O     1.922598     0.544205    -0.677609
 O    -2.001714    -0.248645    -1.977431
 O    -2.914591    -1.425182     0.097323
 O    -1.285578     0.488364     0.382434
 P    -1.504284    -0.860036    -0.531947
 P     1.985026    -0.970932    -0.018795
 C     0.545443    -2.367320    -2.443319
 O     0.714993    -2.401411    -3.572748
 C     1.364509    -0.299661     2.491595
 C     1.022273    -1.242939     3.459316
 H     1.494204    -2.226077     3.431467
 C     0.769693     0.960992     2.488073
 H     1.025750     1.683602     1.712406
 C     0.085328    -0.922877     4.437914
 H    -0.201850    -1.640300     5.208514
 C    -0.170381     1.284599     3.462185
 H    -0.661774     2.258748     3.472309
 C    -0.497372     0.338823     4.424528
 F    -1.408852     0.641006     5.353992
 C     4.698667    -0.970493    -0.202978
 C     5.249273    -0.995615     1.076435
 H     4.684091    -1.439567     1.895211
 C     5.406685    -0.427577    -1.273329
 H     4.956081    -0.434206    -2.266607
 C     6.502850    -0.429272     1.294126
 H     6.958655    -0.424685     2.285788
 C     6.658282     0.138480    -1.058865
 H     7.228200     0.586032    -1.874652
 C     7.187617     0.138761     0.227034
 F     8.381668     0.689315     0.438601
 C     2.896808     1.511209    -0.769713
 C     3.114015     2.065708    -2.030357
 H     2.529274     1.697915    -2.875688
 C     3.622393     1.960011     0.335200
 H     3.454981     1.518784     1.316807
 C     4.078454     3.054807    -2.199925
 H     4.272174     3.500489    -3.177155
 C     4.594992     2.940328     0.165213
 H     5.191633     3.294188     1.007516
 C     4.814825     3.474544    -1.098868
 F     5.748150     4.410451    -1.257781
 C    -3.301598     0.013865    -2.347453
 C    -3.762160     1.328509    -2.394002
 H    -3.094831     2.144694    -2.117505
 C    -4.135556    -1.043105    -2.712866
 H    -3.753066    -2.064034    -2.673673
 C    -5.071756     1.587339    -2.790591
 H    -5.458300     2.606936    -2.833712
 C    -5.445885    -0.788182    -3.106978
 H    -6.121030    -1.596226    -3.393671
 C    -5.899665     0.526268    -3.137050
 F    -7.153437     0.772877    -3.511526
 C    -3.676842    -0.807959     1.061192
 C    -4.925956    -0.291046     0.724311
 H    -5.280317    -0.366167    -0.304355
 C    -3.199151    -0.721499     2.368916
 H    -2.214536    -1.126197     2.607814
 C    -5.701590     0.326140     1.703590
 H    -6.683892     0.740272     1.469987
 C    -3.964671    -0.093029     3.346728
 H    -3.598822     0.011071     4.369252
 C    -5.209230     0.422997     3.000013
 F    -5.946575     1.025003     3.932135
 C    -1.552129     1.798607     0.091153
 C    -2.581267     2.456020     0.764814
 H    -3.188102     1.907616     1.485642
 C    -0.753473     2.478844    -0.828939
 H     0.056285     1.943388    -1.324957
 C    -2.827600     3.800645     0.499856
 H    -3.628627     4.340041     1.008246
 C    -1.001908     3.822198    -1.098184
 H    -0.394085     4.378845    -1.813560
 C    -2.039261     4.466268    -0.432449
 F    -2.278233     5.751192    -0.688073
