  80
scf done:    -5275.435575
 C     0.157466    -3.601474    -1.413991
 H    -0.146969    -4.388719    -0.716946
 H    -0.472405    -3.544648    -2.306344
 C     1.543404    -3.239723    -1.505619
 H     2.268865    -3.771817    -0.880916
 H     1.950653    -2.914511    -2.467517
 H     0.206525    -1.112058    -2.021857
Ir     0.445399    -1.671016    -0.494981
 O    -2.176330     0.221531    -1.230919
 C    -2.963821    -2.195885    -0.294780
 C    -2.108286    -0.128006     1.491668
 O     2.201443     0.726376     1.192584
 C     3.266519     0.310172    -1.280575
 C     0.890602     1.817155    -0.833043
 P     1.694328     0.250566    -0.356277
 P    -1.683715    -0.913499    -0.097771
 C     0.747281    -2.413080     1.247326
 O     0.916302    -2.857148     2.293260
 C    -3.168378     1.140701    -1.027448
 C    -2.878561     2.326155    -0.349384
 H    -1.875574     2.479777     0.049325
 C    -4.449806     0.918850    -1.531561
 H    -4.669306    -0.011296    -2.056813
 C    -3.860657     3.294612    -0.182511
 H    -3.636617     4.228384     0.334829
 C    -5.440085     1.883703    -1.360756
 H    -6.445943     1.722968    -1.751763
 C    -5.140967     3.066826    -0.687207
Cl    -6.371634     4.267884    -0.477112
 C    -3.437646    -2.493257    -1.578145
 H    -3.107395    -1.889621    -2.426951
 C    -3.358526    -3.001321     0.779432
 H    -2.983014    -2.798455     1.785687
 C    -4.313310    -3.553664    -1.784715
 H    -4.688860    -3.785024    -2.782772
 C    -4.230417    -4.068181     0.583755
 H    -4.544601    -4.694655     1.420015
 C    -4.708270    -4.335237    -0.698724
Cl    -5.797194    -5.655800    -0.947555
 C    -1.077302     0.401448     2.275937
 H    -0.036152     0.272759     1.970594
 C    -3.438337     0.058072     1.898056
 H    -4.257468    -0.339646     1.294970
 C    -1.360763     1.106921     3.441511
 H    -0.557563     1.519439     4.053780
 C    -3.733804     0.760415     3.059566
 H    -4.766937     0.914055     3.374320
 C    -2.689498     1.284696     3.823745
Cl    -3.051558     2.166689     5.264680
 C     3.453830     0.459234     1.673951
 C     4.493830     1.359892     1.436063
 H     4.296760     2.264586     0.859279
 C     3.688537    -0.700166     2.412738
 H     2.868730    -1.391129     2.609196
 C     5.771111     1.095654     1.917382
 H     6.591886     1.789313     1.729240
 C     4.965416    -0.967149     2.899950
 H     5.160209    -1.871432     3.478513
 C     6.002830    -0.072529     2.643362
Cl     7.594793    -0.411125     3.235915
 C     4.066227    -0.838747    -1.274022
 H     3.687630    -1.747027    -0.799287
 C     3.738291     1.468524    -1.908268
 H     3.124997     2.372343    -1.924485
 C     5.327616    -0.829535    -1.857404
 H     5.960266    -1.718095    -1.842366
 C     4.991036     1.484261    -2.513222
 H     5.363138     2.381482    -3.010284
 C     5.782471     0.336122    -2.474353
Cl     7.347313     0.357206    -3.208192
 C     0.920207     2.941542    -0.001117
 H     1.435048     2.885154     0.959257
 C     0.220734     1.891983    -2.060882
 H     0.165393     1.010808    -2.703312
 C     0.287637     4.122962    -0.383578
 H     0.295343     4.998136     0.268125
 C    -0.402946     3.069115    -2.456407
 H    -0.938577     3.126671    -3.404824
 C    -0.373821     4.177441    -1.608791
Cl    -1.210742     5.620288    -2.062649
