  56
scf done:    -2251.407414
 C     3.447878    -1.982458    -1.103595
 H     3.838954    -1.572378    -2.039469
 H     4.204109    -2.083793    -0.320365
 C     2.352345    -2.906488    -1.144757
 H     1.924612    -3.188247    -2.111578
 H     2.301549    -3.705679    -0.399825
 H     2.076738    -1.596843     1.058950
Ir     1.656483    -0.993882    -0.407893
 O     1.479949     2.114436     1.101597
 O     3.555789     0.947538     1.592887
 O     3.279153     1.846533    -0.691181
 O    -1.623095    -0.958820    -0.763526
 O    -0.987466    -2.702975     0.863475
 O    -0.836988    -0.303334     1.636631
 P    -0.457260    -1.232692     0.355275
 P     2.464522     0.962361     0.392146
 C     1.163280    -0.352448    -2.162285
 O     0.859727     0.040540    -3.192422
 C     0.297012     2.542594     0.583589
 C    -0.725544     2.858290     1.481368
 H    -0.546145     2.715707     2.547846
 C     0.095305     2.703280    -0.788934
 H     0.900428     2.476768    -1.489622
 C    -1.945239     3.332800     1.014891
 H    -2.760222     3.580186     1.697540
 C    -1.131046     3.169351    -1.261558
 H    -1.312953     3.291247    -2.330782
 C    -2.134696     3.478147    -0.355258
 F    -3.323708     3.889723    -0.808120
 C     3.235887     0.423997     2.863386
 H     2.490262     1.057159     3.369990
 H     2.841817    -0.602547     2.779560
 H     4.162990     0.409688     3.451218
 C     3.908268     3.070211    -0.344568
 H     3.177851     3.788510     0.059671
 H     4.699574     2.902893     0.400206
 H     4.346788     3.473903    -1.265962
 C    -2.977301    -0.886448    -0.545588
 C    -3.594232     0.355012    -0.685525
 H    -2.980264     1.217699    -0.938739
 C    -3.729094    -2.021056    -0.239020
 H    -3.226442    -2.983517    -0.145476
 C    -4.966297     0.479837    -0.492410
 H    -5.463081     1.446426    -0.592885
 C    -5.103085    -1.899993    -0.043536
 H    -5.719537    -2.767171     0.200410
 C    -5.704546    -0.652588    -0.167847
 F    -7.019042    -0.542660     0.023969
 C    -0.218936    -3.459722     1.774049
 H     0.830676    -3.525413     1.446834
 H    -0.247319    -3.020726     2.785945
 H    -0.654273    -4.467273     1.810291
 C    -1.999706    -0.412450     2.438318
 H    -2.764070     0.301207     2.097493
 H    -2.420280    -1.428392     2.406663
 H    -1.713171    -0.169652     3.471909
