  96
scf done:    -3174.935079
 C     0.798832    -4.387500    -0.139212
 H     1.474541    -4.797817    -0.895543
 H     1.144270    -4.542880     0.886369
 C    -0.608802    -4.336058    -0.406112
 H    -0.984543    -4.712681    -1.362399
 H    -1.319090    -4.446321     0.417797
 H    -0.123788    -2.326535     1.094902
Ir     0.208540    -2.340188    -0.506500
 O     2.297392    -0.683281     1.596116
 O     3.440064    -1.599812    -0.403157
 O     1.925158     0.479886    -0.658507
 O    -1.969177    -0.267700    -1.999748
 O    -2.936320    -1.425573     0.056996
 O    -1.278865     0.463351     0.370834
 P    -1.505968    -0.880942    -0.541880
 P     1.970564    -1.028962     0.010099
 C     0.545250    -2.439063    -2.413557
 O     0.728224    -2.486974    -3.540947
 C     1.334101    -0.327599     2.508611
 C     0.973358    -1.250217     3.489677
 H     1.433895    -2.239090     3.480640
 C     0.752736     0.939259     2.479521
 H     1.021207     1.645475     1.693094
 C     0.033556    -0.902954     4.456272
 H    -0.267805    -1.604296     5.236200
 C    -0.190971     1.289405     3.440807
 H    -0.674450     2.267408     3.427023
 C    -0.534230     0.364785     4.417593
 F    -1.446354     0.694651     5.338503
 C     4.676272    -1.024042    -0.184866
 C     5.245316    -1.009382     1.084320
 H     4.705137    -1.454761     1.919463
 C     5.358096    -0.484900    -1.272685
 H     4.898019    -0.525270    -2.260995
 C     6.482238    -0.394228     1.265754
 H     6.922249    -0.371918     2.266585
 C     6.589297     0.126767    -1.072883
 H     7.109117     0.568225    -1.927521
 C     7.167867     0.199037     0.201029
 C     8.468695     0.917087     0.414026
 H     9.175891     0.725770    -0.406881
 H     8.949072     0.614420     1.355296
 H     8.311952     2.008203     0.460205
 C     2.897626     1.450830    -0.740878
 C     3.116415     2.018148    -1.993552
 H     2.526611     1.665280    -2.841974
 C     3.624657     1.890869     0.365107
 H     3.454577     1.447498     1.345162
 C     4.094725     2.996737    -2.146675
 H     4.266518     3.428858    -3.136385
 C     4.605975     2.860264     0.189771
 H     5.189321     3.180253     1.057426
 C     4.869704     3.424820    -1.063907
 C     5.971827     4.428369    -1.239755
 H     5.838868     5.020227    -2.156547
 H     6.951727     3.926540    -1.311281
 H     6.025351     5.124017    -0.389049
 C    -3.256577     0.024781    -2.387310
 C    -3.689338     1.349081    -2.435323
 H    -3.010774     2.150508    -2.142709
 C    -4.107348    -1.012958    -2.769274
 H    -3.746697    -2.041625    -2.726522
 C    -4.987178     1.635625    -2.850996
 H    -5.352299     2.663093    -2.893780
 C    -5.405850    -0.729837    -3.182770
 H    -6.093398    -1.522851    -3.481695
 C    -5.831464     0.593651    -3.214505
 F    -7.075143     0.868253    -3.607372
 C    -3.699687    -0.802479     1.017980
 C    -4.933060    -0.258806     0.672768
 H    -5.278285    -0.319762    -0.360071
 C    -3.235159    -0.726155     2.329960
 H    -2.259391    -1.146722     2.578664
 C    -5.695457     0.375843     1.651707
 H    -6.660551     0.808229     1.373795
 C    -4.002429    -0.077433     3.291913
 H    -3.613984     0.007808     4.309708
 C    -5.245639     0.485917     2.972418
 C    -6.076114     1.161681     4.024750
 H    -5.447390     1.707813     4.743414
 H    -6.661374     0.424962     4.600152
 H    -6.788860     1.872437     3.582416
 C    -1.538676     1.777366     0.083448
 C    -2.576311     2.435748     0.739635
 H    -3.198581     1.888884     1.448808
 C    -0.728547     2.458976    -0.823700
 H     0.085541     1.923797    -1.312992
 C    -2.811867     3.779568     0.459941
 H    -3.635090     4.288863     0.968498
 C    -0.982021     3.801232    -1.091473
 H    -0.346796     4.327477    -1.809281
 C    -2.027955     4.486814    -0.460083
 C    -2.274998     5.942076    -0.733997
 H    -3.323993     6.215079    -0.549445
 H    -2.031025     6.204116    -1.773894
 H    -1.651766     6.578285    -0.083301
