  90
scf done:    -2922.143472
 C     0.539752    -0.867713    -3.841407
 H     1.042690    -0.108453    -4.448866
 H     1.044937    -1.837997    -3.870224
 C    -0.895169    -0.840762    -3.732608
 H    -1.452544    -0.064594    -4.268111
 H    -1.435157    -1.790600    -3.662557
 H     0.040720    -1.807975    -1.524510
Ir    -0.028756    -0.201783    -1.870744
 C     1.246453    -0.569954     1.384497
 C     3.245559    -1.002305    -0.663756
 C     2.342796     1.670800    -0.102879
 C    -3.442946     0.230567    -1.514927
 C    -2.366563    -1.373082     0.656588
 C    -1.910757     1.470601     0.611065
 P    -1.904771    -0.010408    -0.479546
 P     1.726337    -0.037203    -0.338176
 C     0.075196     1.638950    -2.376369
 O     0.191830     2.740797    -2.680619
 H     0.525128     0.191330     1.713747
 H     0.669300    -1.490847     1.232408
 C     2.345312    -0.748289     2.382287
 C     2.844235     0.361843     3.075617
 H     2.388981     1.340506     2.909027
 C     2.921498    -2.016941     2.604687
 C     2.411158    -3.241678     1.902654
 H     2.518001    -3.154562     0.810062
 H     1.342433    -3.413698     2.111758
 H     2.962914    -4.135681     2.223083
 C     3.916540     0.243842     3.955084
 H     4.292734     1.125704     4.478821
 C     3.993517    -2.118360     3.497512
 H     4.444045    -3.099808     3.668833
 C     4.499378    -1.004263     4.162390
 H     5.342050    -1.113934     4.849174
 C     4.421649    -0.819044     0.080891
 H     4.477040    -0.039345     0.842921
 C     3.208621    -2.005974    -1.637684
 H     2.292920    -2.132807    -2.218271
 C     5.530378    -1.629811    -0.136172
 H     6.449114    -1.504826     0.439258
 C     4.310923    -2.826223    -1.862473
 H     4.296651    -3.613106    -2.618578
 C     5.456854    -2.627622    -1.102379
 F     6.515071    -3.407442    -1.307392
 C     3.460593     2.145033    -0.799414
 H     4.048580     1.462713    -1.417128
 C     1.589727     2.579799     0.652185
 H     0.689760     2.251217     1.174492
 C     3.835428     3.484180    -0.722865
 H     4.705864     3.864236    -1.260528
 C     1.953778     3.918814     0.741499
 H     1.369709     4.627421     1.331801
 C     3.079483     4.354290     0.052201
 F     3.436143     5.633970     0.130876
 H    -3.282277     1.192025    -2.026503
 H    -3.361894    -0.540976    -2.291636
 C    -4.753874     0.195216    -0.796274
 C    -5.220132     1.344521    -0.144879
 H    -4.643367     2.268998    -0.220891
 C    -5.504561    -0.997238    -0.712561
 C    -5.060501    -2.254805    -1.401307
 H    -4.084542    -2.599799    -1.025375
 H    -4.955049    -2.108417    -2.488375
 H    -5.785300    -3.064636    -1.242697
 C    -6.390856     1.326849     0.607472
 H    -6.730423     2.234903     1.111029
 C    -6.683285    -0.994431     0.041116
 H    -7.265179    -1.917607     0.109563
 C    -7.124425     0.146665     0.706129
 H    -8.046193     0.115729     1.291912
 C    -3.405551    -1.238602     1.593244
 H    -3.938037    -0.291626     1.697114
 C    -1.715818    -2.608184     0.549774
 H    -0.916518    -2.715004    -0.188450
 C    -3.780102    -2.308061     2.399548
 H    -4.589990    -2.216444     3.125127
 C    -2.079944    -3.686442     1.351524
 H    -1.578415    -4.652773     1.274162
 C    -3.111922    -3.520304     2.266896
 F    -3.469258    -4.543593     3.036134
 C    -1.716417     1.401415     1.996685
 H    -1.686139     0.432681     2.498486
 C    -1.939457     2.738498     0.009506
 H    -2.062352     2.832849    -1.071376
 C    -1.541272     2.555994     2.759718
 H    -1.376778     2.506198     3.837559
 C    -1.778433     3.898706     0.756947
 H    -1.788025     4.884318     0.288571
 C    -1.569430     3.791422     2.127584
 F    -1.374602     4.897313     2.842517
