 114
scf done:    -2839.645605
 C    -0.358854    -3.370950    -0.405713
 H    -0.010059    -3.767969    -1.365791
 H     0.244669    -3.707784     0.443309
 C    -1.766423    -3.155719    -0.223174
 H    -2.443798    -3.392816    -1.046632
 H    -2.219079    -3.324139     0.758748
 H    -0.558028    -1.409757     1.210196
Ir    -0.761085    -1.253401    -0.405163
 C     1.938898     0.237065     1.373308
 C     2.599585    -1.733384    -0.795232
 C     1.791194     1.102411    -1.450514
 C    -1.946380     2.065837    -0.583400
 C    -4.100995     0.176753    -0.401419
 C    -2.635481     0.728525     1.936893
 P    -2.322791     0.380402     0.139172
 P     1.416747    -0.354111    -0.319202
 C    -0.932567    -1.009290    -2.288955
 O    -1.004399    -0.777020    -3.418739
 H     1.897916     1.331649     1.332657
 H     1.124222    -0.084569     2.032668
 C     3.270689    -0.190661     1.905070
 C     4.374824     0.662560     1.798513
 H     4.248260     1.636525     1.321604
 C     3.423661    -1.446060     2.532364
 C     2.247608    -2.354929     2.750073
 H     1.576807    -1.939373     3.519371
 H     2.570908    -3.350158     3.084773
 H     1.625993    -2.478358     1.850512
 C     5.627010     0.285848     2.275313
 H     6.473918     0.968383     2.173923
 C     4.692959    -1.814770     2.992934
 H     4.817775    -2.790942     3.469848
 C     5.790468    -0.965089     2.866112
 H     6.769472    -1.280172     3.235178
 H     2.853108    -2.212377     0.160068
 H     1.944540    -2.435293    -1.324400
 C     3.848280    -1.482977    -1.579515
 C     5.070698    -1.320075    -0.918171
 H     5.094319    -1.372967     0.171229
 C     3.817840    -1.459283    -2.991122
 C     2.556242    -1.744813    -3.755106
 H     1.725218    -1.074955    -3.489956
 H     2.196849    -2.768616    -3.558848
 H     2.721695    -1.653025    -4.837119
 C     6.246578    -1.079898    -1.621601
 H     7.185290    -0.945680    -1.079115
 C     5.008917    -1.208094    -3.682794
 H     4.987838    -1.179431    -4.775733
 C     6.214150    -1.007446    -3.012412
 H     7.127374    -0.811420    -3.579438
 H     1.960431     0.657900    -2.441793
 H     0.831511     1.633342    -1.510515
 C     2.908639     2.047544    -1.106609
 C     4.204640     1.796290    -1.572459
 H     4.379247     0.932610    -2.212463
 C     2.680571     3.211347    -0.337270
 C     1.301839     3.624890     0.088148
 H     0.799496     2.855503     0.692115
 H     0.656609     3.823654    -0.783066
 H     1.336928     4.543390     0.689919
 C     5.274284     2.620428    -1.239022
 H     6.273040     2.381912    -1.611286
 C     3.768598     4.027289    -0.004699
 H     3.588904     4.921159     0.598958
 C     5.060824     3.735459    -0.433624
 H     5.890917     4.388789    -0.154631
 H    -1.160393     2.467890     0.069342
 H    -1.462467     1.847348    -1.544135
 C    -3.078825     3.029202    -0.748768
 C    -3.524074     3.792450     0.338374
 H    -2.995807     3.721866     1.292388
 C    -3.736124     3.161538    -1.992211
 C    -3.260754     2.431409    -3.217346
 H    -3.204506     1.341121    -3.077222
 H    -2.248802     2.756366    -3.510397
 H    -3.927308     2.622069    -4.069254
 C    -4.617112     4.648163     0.230385
 H    -4.942773     5.230339     1.095486
 C    -4.833014     4.024624    -2.082748
 H    -5.344113     4.125940    -3.044115
 C    -5.282499     4.757918    -0.987073
 H    -6.143840     5.421925    -1.089724
 H    -4.657570     1.027199     0.023676
 H    -4.100723     0.317825    -1.489688
 C    -4.752666    -1.122303    -0.029727
 C    -5.279382    -1.295395     1.256693
 H    -5.253005    -0.458911     1.959356
 C    -4.874080    -2.174316    -0.960989
 C    -4.412404    -2.021098    -2.380251
 H    -3.342133    -1.778421    -2.432813
 H    -4.957077    -1.213279    -2.896817
 H    -4.576766    -2.946280    -2.949181
 C    -5.858281    -2.497159     1.654933
 H    -6.254497    -2.604021     2.667466
 C    -5.462038    -3.374056    -0.547833
 H    -5.547492    -4.191838    -1.268625
 C    -5.937887    -3.550227     0.748690
 H    -6.385791    -4.502320     1.042706
 H    -3.311270     1.598076     1.978921
 H    -3.216423    -0.141076     2.267522
 C    -1.447777     0.927204     2.828735
 C    -0.776053     2.155689     2.840546
 H    -1.132610     2.963733     2.197424
 C    -1.017556    -0.093322     3.705484
 C    -1.730499    -1.412292     3.786650
 H    -1.776101    -1.902714     2.802407
 H    -2.766555    -1.289605     4.143188
 H    -1.219185    -2.091147     4.482723
 C     0.324969     2.382992     3.662143
 H     0.834919     3.348862     3.639123
 C     0.083016     0.156431     4.534058
 H     0.411536    -0.628527     5.220751
 C     0.763140     1.371855     4.511434
 H     1.627477     1.527551     5.160555
