 110
scf done:    -2387.520993
 C    -0.821133    -1.470863    -3.186787
 H    -1.357384    -2.425939    -3.172250
 H    -1.363609    -0.681521    -3.717912
 C     0.619711    -1.485719    -3.247669
 H     1.134028    -2.452176    -3.278606
 H     1.132595    -0.706949    -3.821105
 H    -0.009333     0.650025    -1.976776
Ir    -0.011344    -0.849877    -1.291859
 C    -2.603939     1.432284    -0.857317
 C    -3.258553    -1.386752    -0.176252
 C    -1.773252     0.263525     1.670941
 C     2.640199    -1.207352     1.004296
 C     3.233687     0.352019    -1.461836
 C     1.765590     1.531995     0.727474
 P     1.899592    -0.030013    -0.242958
 P    -1.901406    -0.130949    -0.126635
 C     0.025121    -2.589223    -0.515764
 O     0.059267    -3.630538    -0.021292
 H    -1.887271     2.211325    -0.553239
 H    -2.473657     1.309580    -1.939948
 C    -4.002938     1.814923    -0.488450
 C    -4.250636     2.456594     0.731743
 H    -3.403696     2.726084     1.368334
 C    -5.089792     1.512248    -1.336492
 C    -4.884955     0.893723    -2.690183
 H    -4.333819    -0.056813    -2.640492
 H    -4.305901     1.559460    -3.350951
 H    -5.848058     0.694543    -3.179343
 C    -5.544764     2.749718     1.151576
 H    -5.710492     3.241833     2.112723
 C    -6.384362     1.815593    -0.900954
 H    -7.228487     1.575348    -1.553388
 C    -6.621394     2.413904     0.334626
 H    -7.644622     2.631757     0.649270
 H    -2.751878    -2.354228    -0.023528
 H    -3.582933    -1.404880    -1.227968
 C    -4.433432    -1.253791     0.784176
 H    -4.060879    -1.334232     1.819128
 H    -4.894555    -0.257147     0.704196
 C    -5.525651    -2.310582     0.589872
 H    -5.046120    -3.306283     0.648390
 C    -6.548898    -2.211179     1.715806
 H    -6.076557    -2.336851     2.702773
 H    -7.333791    -2.977134     1.617527
 H    -7.040400    -1.223891     1.705090
 C    -6.209993    -2.194850    -0.768102
 H    -7.001115    -2.952647    -0.877771
 H    -5.507635    -2.333560    -1.603563
 H    -6.675790    -1.201934    -0.881804
 H    -2.761291     0.551337     2.065629
 H    -1.125101     1.151282     1.739371
 C    -1.193156    -0.901561     2.458746
 H    -1.825876    -1.793580     2.310770
 H    -0.212608    -1.169696     2.028821
 C    -1.039232    -0.665959     3.963068
 H    -2.035559    -0.398088     4.362806
 C    -0.585996    -1.949499     4.649359
 H    -1.287337    -2.776843     4.460344
 H    -0.504270    -1.817419     5.739289
 H     0.403534    -2.263344     4.276624
 C    -0.086183     0.480864     4.279868
 H     0.008626     0.629587     5.366423
 H    -0.423023     1.434163     3.846476
 H     0.923672     0.269490     3.888159
 H     1.930971    -1.178155     1.847109
 H     2.535079    -2.203413     0.555123
 C     4.038232    -0.957251     1.476960
 C     4.276755    -0.009808     2.480605
 H     3.424746     0.487394     2.951619
 C     5.133271    -1.641347     0.906511
 C     4.938967    -2.721512    -0.119207
 H     4.389947    -2.366469    -1.003656
 H     4.363723    -3.567044     0.292191
 H     5.905788    -3.112610    -0.463798
 C     5.568646     0.314222     2.884651
 H     5.726854     1.064582     3.662701
 C     6.425185    -1.306186     1.325660
 H     7.275219    -1.830095     0.879718
 C     6.652348    -0.328993     2.292393
 H     7.673689    -0.084608     2.593355
 H     2.697383     0.808295    -2.310212
 H     3.563474    -0.629418    -1.835804
 C     4.404896     1.228707    -1.037087
 H     4.024975     2.227535    -0.764721
 H     4.885737     0.830145    -0.130327
 C     5.479104     1.407210    -2.114998
 H     4.981072     1.781927    -3.029513
 C     6.494649     2.452407    -1.666870
 H     6.012084     3.419743    -1.456166
 H     7.266921     2.620505    -2.433556
 H     7.003352     2.126202    -0.744239
 C     6.176887     0.095925    -2.460748
 H     6.955349     0.251298    -3.223674
 H     5.479085    -0.657451    -2.855778
 H     6.661445    -0.330414    -1.566663
 H     2.756899     1.793429     1.132586
 H     1.118913     1.294217     1.586603
 C     1.199649     2.687616    -0.083496
 H     1.828296     2.847870    -0.975951
 H     0.211887     2.399720    -0.479571
 C     1.084405     4.014738     0.669979
 H     2.090007     4.269907     1.054911
 C     0.651246     5.122116    -0.284029
 H     1.348874     5.220508    -1.130133
 H     0.598105     6.096660     0.225481
 H    -0.347486     4.909544    -0.701125
 C     0.137313     3.929278     1.861566
 H     0.069086     4.895120     2.385308
 H     0.461522     3.179143     2.597945
 H    -0.881435     3.661439     1.532289
