 102
scf done:    -2682.516845
 C     0.517085     0.484826    -3.888977
 H     1.028545     1.405007    -4.189639
 H     1.012333    -0.416805    -4.261878
 C    -0.918325     0.488226    -3.770913
 H    -1.466077     1.410495    -3.993349
 H    -1.470399    -0.417865    -4.041149
 H    -0.000146    -1.213969    -2.058157
Ir    -0.041123     0.410571    -1.809843
 C     1.231843    -1.097406     1.099307
 C     3.213879    -0.847473    -0.990372
 C     2.375790     1.502782     0.456154
 C    -3.441581     0.717407    -1.278270
 C    -2.381285    -1.569587     0.159354
 C    -1.872010     1.104597     1.131460
 P    -1.899387     0.105560    -0.413027
 P     1.721179    -0.012143    -0.337715
 C     0.095626     2.307766    -1.622365
 O     0.236135     3.443908    -1.513359
 H     0.521771    -0.484032     1.672106
 H     0.640477    -1.900697     0.641234
 C     2.323704    -1.625031     1.973886
 C     2.832056    -0.829996     3.008777
 H     2.390723     0.153013     3.186614
 C     2.884392    -2.899896     1.744784
 C     2.365513    -3.798939     0.660939
 H     2.495491    -3.344502    -0.333682
 H     1.290045    -4.006490     0.785509
 H     2.896018    -4.760800     0.662189
 C     3.897001    -1.258865     3.795978
 H     4.280531    -0.616590     4.592235
 C     3.948755    -3.318203     2.550744
 H     4.384712    -4.305514     2.374176
 C     4.462928    -2.509827     3.562189
 H     5.298336    -2.862267     4.172168
 C     3.149306    -1.471731    -2.240720
 H     2.234237    -1.376512    -2.827654
 C     4.384637    -0.949365    -0.229851
 H     4.445303    -0.458483     0.744485
 C     4.240305    -2.199279    -2.707916
 H     4.191490    -2.686240    -3.684887
 C     5.484576    -1.684264    -0.684667
 C     6.708986    -1.808281     0.174160
 H     7.118510    -0.818673     0.430922
 H     6.463860    -2.309796     1.124131
 H     7.499609    -2.384992    -0.325991
 C     5.394132    -2.309012    -1.933132
 H     6.244740    -2.887552    -2.304684
 C     1.653813     2.112721     1.490314
 H     0.755688     1.644593     1.897131
 C     3.490393     2.159869    -0.071770
 H     4.045019     1.700971    -0.894710
 C     2.068450     3.339730     1.996842
 H     1.502586     3.803404     2.808701
 C     3.913202     3.399089     0.423714
 C     5.096060     4.094712    -0.185079
 H     5.898039     3.383154    -0.431704
 H     4.812036     4.600956    -1.122593
 H     5.508645     4.857474     0.490506
 C     3.191827     3.977025     1.472598
 H     3.510274     4.941364     1.878010
 H    -3.258214     1.792108    -1.429947
 H    -3.384541     0.257559    -2.273547
 C    -4.750458     0.469444    -0.598777
 C    -5.181737     1.337099     0.412772
 H    -4.573571     2.211584     0.654721
 C    -5.535880    -0.659072    -0.919690
 C    -5.128997    -1.617594    -2.000515
 H    -4.166423    -2.100448    -1.770333
 H    -5.013895    -1.110739    -2.972143
 H    -5.879851    -2.409775    -2.123714
 C    -6.352691     1.096116     1.125524
 H    -6.663113     1.784697     1.914818
 C    -6.715438    -0.880050    -0.199926
 H    -7.326219    -1.752462    -0.448667
 C    -7.123379    -0.023016     0.819708
 H    -8.047204    -0.225359     1.367118
 C    -1.760408    -2.695501    -0.395053
 H    -0.961984    -2.550404    -1.126901
 C    -3.416421    -1.750176     1.086054
 H    -3.913869    -0.882435     1.524711
 C    -2.172960    -3.971982    -0.023405
 H    -1.684775    -4.847747    -0.457962
 C    -3.847600    -3.027783     1.460207
 C    -4.980496    -3.178883     2.432420
 H    -4.739514    -2.712307     3.400702
 H    -5.884816    -2.677932     2.052033
 H    -5.220838    -4.235488     2.615041
 C    -3.210153    -4.135967     0.893366
 H    -3.532876    -5.142140     1.175149
 C    -1.696245     0.547109     2.404799
 H    -1.693038    -0.536026     2.537075
 C    -1.858261     2.498357     1.003736
 H    -1.961734     2.953797     0.015492
 C    -1.514499     1.376588     3.510371
 H    -1.375931     0.932745     4.499249
 C    -1.669197     3.343104     2.100832
 C    -1.598994     4.828183     1.899994
 H    -1.502053     5.362852     2.855089
 H    -0.731565     5.086977     1.271465
 H    -2.495651     5.207639     1.386016
 C    -1.500906     2.761762     3.362864
 H    -1.348236     3.402176     4.235739
