 100
scf done:    -2904.595513
 C    -0.445715    -3.807484    -0.891298
 H    -0.994540    -4.452051    -0.195980
 H    -0.907313    -3.745777    -1.882455
 C     0.990821    -3.754629    -0.798469
 H     1.485102    -4.369818    -0.037813
 H     1.578462    -3.646160    -1.715296
 H     0.270452    -1.472859    -1.676284
Ir     0.161178    -1.902872    -0.092745
 C    -2.027327     0.161431    -1.775961
 C    -3.325040    -1.300795     0.370343
 C    -1.728806     0.925195     1.087012
 C     2.282796     0.270985     1.814756
 C     3.486499    -0.727001    -0.575754
 C     1.440437     1.253587    -0.814992
 P     1.841081    -0.287562     0.083845
 P    -1.733857    -0.503155    -0.061115
 C     0.120040    -2.478363     1.727331
 O     0.138290    -2.820974     2.827179
 H    -2.041231    -0.768267    -2.367332
 H    -1.084791     0.665230    -2.038191
 C    -3.208222     1.024179    -2.113166
 C    -3.002734     2.322046    -2.604364
 H    -1.981228     2.685552    -2.738145
 C    -4.526738     0.564675    -1.990786
 H    -4.715919    -0.451734    -1.642205
 C    -4.077283     3.148199    -2.926791
 H    -3.889990     4.153949    -3.312107
 C    -5.601951     1.392667    -2.307066
 H    -6.621271     1.015197    -2.194395
 C    -5.384421     2.690038    -2.768405
 H    -6.229941     3.335964    -3.016842
 C    -4.312671    -0.672573     1.143954
 H    -4.127792     0.318072     1.563826
 C    -3.595706    -2.571119    -0.144410
 H    -2.824024    -3.082821    -0.722773
 C    -5.531739    -1.290001     1.379294
 H    -6.304106    -0.809190     1.982528
 C    -4.821917    -3.196494     0.071440
 H    -4.995607    -4.186722    -0.350319
 C    -5.802346    -2.554628     0.838862
 O    -7.014207    -3.074026     1.112641
 C    -7.337414    -4.339064     0.606990
 H    -6.655714    -5.120119     0.987213
 H    -8.356743    -4.562637     0.946374
 H    -7.316999    -4.358039    -0.497070
 C    -1.175798     0.728938     2.363503
 H    -0.778824    -0.251655     2.632996
 C    -2.246063     2.187276     0.788842
 H    -2.705788     2.377764    -0.179869
 C    -1.111902     1.757902     3.289295
 H    -0.678778     1.605389     4.279630
 C    -2.181526     3.237058     1.706577
 H    -2.591094     4.208134     1.426542
 C    -1.604218     3.031287     2.963972
 O    -1.487556     3.976759     3.914149
 C    -1.959732     5.267034     3.645363
 H    -3.045371     5.273917     3.443950
 H    -1.761189     5.868206     4.541485
 H    -1.437188     5.724216     2.786184
 H     2.270661    -0.660429     2.400221
 H     1.441612     0.878942     2.178288
 C     3.599514     0.967115     1.955265
 C     3.727154     2.351282     1.785531
 H     2.838764     2.957688     1.600125
 C     4.759214     0.219595     2.200397
 H     4.678532    -0.862889     2.328263
 C     4.977298     2.965006     1.840017
 H     5.054617     4.046385     1.702193
 C     6.008463     0.829467     2.255423
 H     6.899256     0.223723     2.437791
 C     6.123720     2.206447     2.069229
 H     7.103957     2.687523     2.107094
 C     4.396646     0.238528    -1.037772
 H     4.098383     1.287507    -1.094269
 C     3.911351    -2.052443    -0.489415
 H     3.206043    -2.807120    -0.135209
 C     5.682130    -0.118015    -1.407086
 H     6.397051     0.625609    -1.763521
 C     5.207733    -2.423927    -0.845934
 H     5.502934    -3.470286    -0.765434
 C     6.102052    -1.453151    -1.309858
 O     7.371553    -1.705352    -1.683003
 C     7.849287    -3.018776    -1.606109
 H     7.274065    -3.704285    -2.253225
 H     8.890808    -2.996096    -1.951152
 H     7.824584    -3.405425    -0.571816
 C     1.540420     1.259371    -2.218327
 H     1.963419     0.392024    -2.731297
 C     0.872326     2.366030    -0.196506
 H     0.738913     2.393140     0.886020
 C     1.090876     2.335154    -2.965002
 H     1.157335     2.338262    -4.054491
 C     0.413863     3.458112    -0.935782
 H    -0.042613     4.295364    -0.408481
 C     0.513504     3.444273    -2.327710
 O     0.054977     4.424603    -3.133974
 C    -0.568458     5.534740    -2.551466
 H     0.116274     6.087034    -1.883967
 H    -0.870525     6.194477    -3.374668
 H    -1.466686     5.243986    -1.977416
