  76
scf done:    -2142.178150
 C     0.800623    -3.360707     0.520200
 H     1.423783    -3.871944    -0.222317
 H     1.210898    -3.409224     1.533500
 C    -0.627960    -3.377472     0.337273
 H    -1.033482    -3.898914    -0.536729
 H    -1.282251    -3.437092     1.212168
 H    -0.112557    -1.235448     1.585846
Ir     0.105532    -1.395291    -0.030934
 C     1.867194     1.013526     1.895208
 C     3.518978    -0.272445    -0.048995
 C     1.644718     1.666195    -0.901143
 C    -1.844079     1.067157    -1.690022
 C    -3.375653    -0.703831    -0.046819
 C    -1.754755     1.296376     1.211510
 P    -1.712404     0.065494    -0.146129
 P     1.774193     0.228135     0.233475
 C     0.336762    -1.673152    -1.908022
 O     0.457597    -1.843636    -3.040559
 H     2.607578     1.830714     1.857014
 H     0.877901     1.462079     2.083986
 C     2.214075     0.030240     3.003556
 H     3.213220    -0.397722     2.815002
 H     1.505306    -0.812601     2.960554
 C     2.173891     0.678292     4.378459
 H     2.891363     1.511454     4.453748
 H     1.172322     1.084363     4.593397
 H     2.420347    -0.045637     5.170014
 C     3.843202    -1.627730    -0.137267
 C     4.536628     0.686674    -0.143221
 C     6.178269    -1.066316    -0.397567
 C     5.859644     0.290703    -0.315859
 C     5.170002    -2.023331    -0.309172
 H     3.035813    -2.360533    -0.071361
 H     5.414565    -3.086071    -0.377744
 H     7.217224    -1.375714    -0.535862
 H     6.647629     1.043987    -0.392472
 H     4.290066     1.751223    -0.095331
 C     1.334093     2.959181    -0.467536
 C     1.780517     1.429793    -2.277691
 C     1.256056     3.738812    -2.756376
 C     1.590285     2.455770    -3.196373
 C     1.134547     3.987178    -1.391765
 H     1.226607     3.173332     0.596307
 H     0.883872     4.990290    -1.037218
 H     1.097436     4.543300    -3.478374
 H     1.696098     2.252317    -4.264567
 H     2.027787     0.426469    -2.633199
 H    -0.973909     1.745109    -1.685595
 H    -1.642743     0.350034    -2.502932
 C    -3.140989     1.818410    -1.956503
 H    -3.415150     2.430720    -1.081321
 H    -3.961795     1.093202    -2.075838
 C    -3.040341     2.702154    -3.190857
 H    -2.248271     3.459795    -3.075321
 H    -2.794334     2.108210    -4.085564
 H    -3.986134     3.229160    -3.388607
 C    -3.573881    -1.922044    -0.706587
 C    -4.457402    -0.093334     0.599165
 C    -5.906511    -1.904022    -0.081522
 C    -5.714587    -0.695058     0.585750
 C    -4.834120    -2.514626    -0.731144
 H    -2.721396    -2.408032    -1.186933
 H    -4.976260    -3.465554    -1.250228
 H    -6.892875    -2.374190    -0.090509
 H    -6.550695    -0.213563     1.098897
 H    -4.316908     0.857268     1.118929
 C    -1.847943     0.820498     2.528488
 C    -1.599390     2.670314     1.002581
 C    -1.613494     3.066271     3.388278
 C    -1.522480     3.548477     2.085580
 C    -1.784869     1.697159     3.606148
 H    -1.951386    -0.253214     2.703438
 H    -1.858751     1.308999     4.624852
 H    -1.552111     3.753966     4.234981
 H    -1.391612     4.618220     1.904072
 H    -1.516934     3.068645    -0.009030
