  88
scf done:    -2299.321824
 C     0.682029    -3.466811     0.659069
 H     1.324616    -4.017477    -0.037325
 H     1.042413    -3.495779     1.691959
 C    -0.737176    -3.450823     0.409687
 H    -1.116813    -3.988335    -0.466301
 H    -1.432537    -3.466670     1.254349
 H    -0.216268    -1.287944     1.617715
Ir     0.068596    -1.502664     0.017563
 C     1.787509     0.955601     1.929754
 C     3.505387    -0.461947     0.139613
 C     1.723925     1.479073    -0.895872
 C    -1.712430     0.979933    -1.793076
 C    -3.385086    -0.711587    -0.199264
 C    -1.768464     1.264405     1.101823
 P    -1.699533     0.006747    -0.226752
 P     1.764732     0.092096     0.304110
 C     0.374641    -1.848232    -1.836654
 O     0.539883    -2.062692    -2.956399
 H     2.554234     1.748327     1.892500
 H     0.804175     1.441681     2.038622
 C     2.040349     0.023534     3.105100
 H     3.034898    -0.441788     2.998141
 H     1.309283    -0.800149     3.064328
 C     1.941273     0.745554     4.439777
 H     2.677500     1.562514     4.513000
 H     0.940697     1.188105     4.572888
 H     2.120200     0.059733     5.281889
 C     3.806768    -1.823768     0.149262
 H     2.984183    -2.539187     0.219075
 C     4.554562     0.462594     0.040305
 H     4.336931     1.534285     0.013878
 C     5.130785    -2.254338     0.068657
 H     5.348732    -3.325919     0.078932
 C     5.871074     0.026963    -0.041349
 H     6.677900     0.761467    -0.120971
 C     6.183647    -1.340840    -0.028840
 C     7.608357    -1.798881    -0.139231
 H     8.258643    -1.259442     0.566582
 H     7.703275    -2.874885     0.062796
 H     8.005464    -1.612561    -1.150648
 C     1.418145     2.795510    -0.543523
 H     1.277014     3.069318     0.502594
 C     1.907374     1.181978    -2.255541
 H     2.157509     0.162214    -2.558348
 C     1.259118     3.776315    -1.525228
 H     1.007293     4.797602    -1.224771
 C     1.757326     2.162751    -3.225442
 H     1.898546     1.901635    -4.278052
 C     1.412921     3.479208    -2.880780
 C     1.207846     4.519772    -3.941729
 H     2.063109     4.560754    -4.633870
 H     0.314457     4.294150    -4.546953
 H     1.073301     5.519969    -3.506657
 H    -0.815764     1.620555    -1.754444
 H    -1.500336     0.239600    -2.581971
 C    -2.960877     1.779693    -2.137877
 H    -3.264679     2.403732    -1.280997
 H    -3.800267     1.086482    -2.307912
 C    -2.749483     2.658571    -3.361936
 H    -1.943796     3.391004    -3.189776
 H    -2.461109     2.056608    -4.238583
 H    -3.662054     3.215653    -3.623435
 C    -3.592332    -1.940300    -0.835851
 H    -2.735130    -2.467047    -1.262020
 C    -4.483222    -0.057374     0.369026
 H    -4.346232     0.903696     0.870532
 C    -4.866443    -2.492735    -0.911382
 H    -5.006657    -3.452262    -1.417279
 C    -5.754038    -0.623488     0.302374
 H    -6.599623    -0.098417     0.755885
 C    -5.970187    -1.848624    -0.338081
 C    -7.334271    -2.472322    -0.381067
 H    -7.504755    -3.003430    -1.329181
 H    -7.454351    -3.209813     0.430248
 H    -8.126865    -1.720003    -0.260500
 C    -1.546819     2.625925     0.885286
 H    -1.410878     3.009850    -0.126198
 C    -1.933598     0.821265     2.423679
 H    -2.094726    -0.242398     2.615568
 C    -1.464576     3.514280     1.959692
 H    -1.277006     4.573898     1.763860
 C    -1.865024     1.710958     3.486371
 H    -1.993877     1.338451     4.506669
 C    -1.613805     3.076100     3.276759
 C    -1.494024     4.018199     4.437832
 H    -2.361803     3.937296     5.110663
 H    -0.598359     3.789543     5.038509
 H    -1.416493     5.062743     4.105441
