  60
scf done:    -1532.943314
 C    -1.844967    -2.729610    -0.841334
 H    -1.861204    -3.593446    -0.167994
 H    -2.844162    -2.357020    -1.088339
 C    -0.805231    -2.645591    -1.837236
 H    -0.061886    -3.448164    -1.891573
 H    -1.043480    -2.213416    -2.814254
 H    -1.404135    -0.228967    -1.251350
Ir    -0.448588    -1.181340    -0.304490
 C    -2.892720     0.933894     1.174979
 C    -2.081376    -1.264431     2.778100
 C    -0.383106     0.992599     2.572763
 C     2.722810     0.348362     0.029903
 C     1.949031    -0.289116    -2.683122
 C     0.801361     1.965888    -1.388201
 P     1.245160     0.216004    -1.067803
 P    -1.415291    -0.107960     1.521009
 C     0.673308    -2.305074     0.753048
 O     1.368149    -2.957511     1.401381
 H    -3.332800     1.250753     2.137613
 H    -3.610434     0.250749     0.693062
 C    -2.611126     2.133087     0.284923
 H    -1.885989     2.798228     0.785931
 H    -2.120282     1.776827    -0.636899
 C    -3.841397     2.962485    -0.093714
 H    -4.334862     3.283283     0.843583
 C    -3.412275     4.215528    -0.849067
 H    -2.711611     4.824721    -0.256523
 H    -4.276067     4.848521    -1.104757
 H    -2.905469     3.947805    -1.791397
 C    -4.850852     2.160204    -0.907473
 H    -5.715411     2.781296    -1.188476
 H    -5.237262     1.291601    -0.353855
 H    -4.391078     1.784183    -1.836716
 H    -2.816580    -1.921819     2.292489
 H    -1.261804    -1.894677     3.153322
 H    -2.554153    -0.736882     3.621672
 H    -0.953466     1.425160     3.410437
 H     0.456843     0.405058     2.972271
 H     0.034041     1.805894     1.962105
 H     3.055450    -0.690935     0.196831
 H     2.321369     0.687450     0.998586
 C     3.885467     1.217805    -0.423060
 H     4.224583     0.889310    -1.419952
 H     3.551652     2.264168    -0.544351
 C     5.091935     1.202264     0.522189
 H     5.404283     0.147404     0.639803
 C     6.256426     1.970122    -0.092745
 H     6.535215     1.561052    -1.076454
 H     7.148029     1.932986     0.552050
 H     5.994138     3.031914    -0.235676
 C     4.752623     1.747280     1.905248
 H     5.637266     1.741535     2.560404
 H     3.970827     1.156789     2.405824
 H     4.396199     2.789335     1.837761
 H     2.385534    -1.292628    -2.576676
 H     1.121971    -0.361029    -3.403784
 H     2.708559     0.410306    -3.064666
 H     0.476727     2.439796    -0.450994
 H     1.636233     2.538842    -1.818462
 H    -0.048206     1.982451    -2.085200
