 108
scf done:    -2761.081363
 C    -0.188667    -4.047699     0.723243
 H     0.197229    -4.736206    -0.036530
 H     0.375446    -4.082068     1.660742
 C    -1.609944    -3.800652     0.775380
 H    -2.259765    -4.313106     0.056621
 H    -2.083680    -3.651800     1.751336
 H    -0.439662    -1.675402     1.610712
Ir    -0.599701    -2.060440     0.023502
 C     1.450341     0.636594     0.907170
 C     2.847768    -1.960355     0.449075
 C     1.871838    -0.365233    -1.878633
 C    -1.900966     1.022969    -1.212189
 C    -3.829042    -1.181620    -0.889255
 C    -2.925102     0.333774     1.432741
 P    -2.277334    -0.451705    -0.120520
 P     1.422722    -0.901990    -0.140542
 C    -0.712617    -2.552256    -1.820477
 O    -0.754766    -2.816157    -2.941382
 H     0.686985     0.417740     1.664194
 H     1.044540     1.432757     0.266498
 C     2.706761     1.090529     1.581493
 C     3.525697     2.083742     1.031126
 H     3.256655     2.534819     0.075359
 C     3.063741     0.549224     2.825094
 H     2.412931    -0.198120     3.286541
 C     4.676919     2.506293     1.693016
 H     5.298276     3.285282     1.243628
 C     4.217166     0.966019     3.486350
 H     4.476678     0.528338     4.453410
 C     5.032380     1.946067     2.919883
 H     5.935311     2.277989     3.437965
 H     2.883864    -1.810694     1.538376
 H     2.474740    -2.981358     0.288064
 C     4.201999    -1.802426    -0.172128
 C     4.512097    -2.505805    -1.345179
 H     3.769987    -3.179519    -1.782985
 C     5.183721    -0.979203     0.389112
 H     4.960556    -0.434592     1.308102
 C     5.758513    -2.360327    -1.948508
 H     5.985604    -2.907726    -2.866553
 C     6.445525    -0.831537    -0.196434
 C     7.486038     0.032924     0.453914
 H     7.028238     0.909266     0.934723
 H     8.022975    -0.524606     1.239508
 H     8.234826     0.380690    -0.272293
 C     6.718527    -1.523965    -1.381691
 H     7.696214    -1.413817    -1.859079
 H     2.443478    -1.200218    -2.310174
 H     0.907637    -0.340962    -2.404765
 C     2.587445     0.935903    -2.075607
 C     1.856378     2.126641    -2.190833
 H     0.763959     2.096628    -2.163152
 C     3.981812     0.999310    -2.158268
 H     4.561514     0.077506    -2.091406
 C     2.511405     3.344199    -2.359455
 H     1.930726     4.265099    -2.453920
 C     4.656045     2.213735    -2.318925
 C     6.155868     2.250293    -2.343489
 H     6.572122     1.321846    -2.759355
 H     6.532820     3.099678    -2.931464
 H     6.555451     2.350554    -1.320493
 C     3.903042     3.389848    -2.416766
 H     4.411958     4.348642    -2.549067
 H    -1.335831     0.594166    -2.052905
 H    -1.187204     1.622044    -0.625238
 C    -3.039465     1.847033    -1.725395
 C    -3.627150     2.868677    -0.966157
 H    -3.232083     3.106747     0.022859
 C    -3.566002     1.591558    -3.000205
 H    -3.108407     0.816158    -3.621296
 C    -4.712546     3.592986    -1.453275
 H    -5.152359     4.383531    -0.840520
 C    -4.652932     2.312478    -3.490410
 H    -5.044230     2.091585    -4.486269
 C    -5.235499     3.314280    -2.715401
 H    -6.088178     3.880860    -3.096287
 H    -3.856577    -0.838269    -1.933954
 H    -3.632977    -2.261724    -0.902251
 C    -5.125688    -0.898578    -0.194155
 C    -5.553293    -1.730431     0.850022
 H    -4.953855    -2.604439     1.121271
 C    -5.914962     0.201553    -0.539628
 H    -5.600223     0.845464    -1.363435
 C    -6.731973    -1.449242     1.533800
 H    -7.060319    -2.104982     2.344051
 C    -7.101097     0.500391     0.140370
 C    -7.904991     1.709434    -0.241888
 H    -7.417444     2.632437     0.113317
 H    -7.996556     1.799579    -1.334714
 H    -8.915730     1.677529     0.188915
 C    -7.499421    -0.338559     1.185761
 H    -8.424938    -0.124301     1.727198
 H    -3.680807     1.080790     1.144627
 H    -3.466488    -0.472064     1.948239
 C    -1.874985     0.907891     2.333579
 C    -1.374146     0.149428     3.398221
 H    -1.769181    -0.853087     3.573856
 C    -1.349435     2.190480     2.132208
 H    -1.730103     2.806702     1.314201
 C    -0.380666     0.666017     4.226701
 H    -0.004400     0.065501     5.058716
 C    -0.332781     2.715276     2.935923
 C     0.277692     4.052799     2.636980
 H    -0.348151     4.641851     1.951410
 H     0.432189     4.641814     3.553393
 H     1.266394     3.924540     2.164267
 C     0.142188     1.935549     3.996092
 H     0.938918     2.323424     4.635955
