  66
scf done:    -2059.746493
 C    -2.803641    -2.593908    -1.103138
 H    -3.464248    -3.022700    -0.342932
 H    -3.332235    -1.991048    -1.847720
 C    -1.634013    -3.328450    -1.509140
 H    -1.442704    -4.305511    -1.052570
 H    -1.305630    -3.262913    -2.550561
 H    -1.047659    -0.857319    -1.752408
Ir    -1.051137    -1.626207    -0.311047
 C    -2.522691     1.613726    -0.580491
 O    -3.132122     0.025234     1.590045
 O    -0.815089     1.129965     1.538660
 C     1.935331    -0.585009     1.265486
 O     2.265445    -2.507359    -0.497859
 O     1.653412    -0.222890    -1.498156
 P     1.209900    -1.249625    -0.299846
 P    -1.868103     0.307662     0.571150
 C    -1.082768    -2.626945     1.341039
 O    -1.103380    -3.228200     2.316623
 H    -2.794506     1.039139    -1.480296
 H    -3.452138     2.033634    -0.178891
 C    -1.539130     2.702589    -0.916530
 C    -0.292471     2.361353    -1.453381
 H    -0.046387     1.312565    -1.631908
 C    -1.845469     4.060691    -0.688457
 C    -3.182065     4.496907    -0.154818
 H    -3.395295     4.077066     0.843026
 H    -4.007596     4.186569    -0.815224
 H    -3.226903     5.590555    -0.061941
 C     0.657936     3.335561    -1.742244
 H     1.628314     3.038344    -2.146034
 C    -0.876700     5.026319    -0.987492
 H    -1.111913     6.079811    -0.811944
 C     0.367807     4.676519    -1.504330
 H     1.104859     5.452282    -1.725866
 C    -4.263141     0.824107     1.826405
 H    -4.014030     1.880008     2.026633
 H    -4.973140     0.780965     0.983315
 H    -4.765031     0.418386     2.716259
 C    -1.184063     2.200257     2.375986
 H    -1.669172     3.012881     1.810962
 H    -1.850235     1.858326     3.184463
 H    -0.262533     2.598453     2.823146
 H     1.070381    -0.137083     1.774307
 H     2.252723    -1.467706     1.839202
 C     3.013575     0.441031     1.099408
 C     2.628851     1.767896     0.871221
 H     1.563051     2.009093     0.854293
 C     4.381542     0.103878     1.105225
 C     4.831971    -1.307598     1.348231
 H     4.335411    -2.011702     0.663344
 H     4.584946    -1.633751     2.372593
 H     5.919456    -1.402804     1.223489
 C     3.573337     2.761061     0.629841
 H     3.247249     3.786594     0.440090
 C     5.318108     1.116597     0.870245
 H     6.381614     0.861366     0.872454
 C     4.927558     2.432208     0.626975
 H     5.683072     3.199037     0.439024
 C     2.017521    -3.465785    -1.506568
 H     0.943569    -3.705801    -1.557771
 H     2.348273    -3.099182    -2.493111
 H     2.588135    -4.369538    -1.252440
 C     2.975313    -0.044597    -1.971553
 H     3.391189     0.903824    -1.601174
 H     3.634615    -0.867151    -1.657701
 H     2.932796    -0.021769    -3.071041
