  84
scf done:    -4284.680006
 C    -0.792542    -3.216669    -1.945950
 H    -1.419175    -3.972880    -1.460090
 H    -1.221149    -2.843764    -2.882205
 C     0.636886    -3.335023    -1.836254
 H     1.043901    -4.175316    -1.262749
 H     1.265879    -3.042055    -2.681967
 H     0.146596    -0.836040    -2.082603
Ir    -0.044730    -1.655922    -0.668496
 C    -2.723087     0.066992    -2.071707
 C    -3.301969    -0.922318     0.550151
 C    -1.659827     1.388358     0.321545
 C     2.013358    -0.269864     1.902653
 C     3.416960    -0.853640    -0.534238
 C     1.729033     1.413400    -0.499900
 P     1.753779    -0.338567     0.041687
 P    -1.897085    -0.265743    -0.427674
 C    -0.188321    -2.648161     0.958457
 O    -0.232712    -3.229334     1.950331
 H    -2.572649    -0.873191    -2.620486
 H    -2.111621     0.822806    -2.586769
 C    -4.176400     0.420693    -2.004603
 C    -4.621093     1.738952    -1.848113
 H    -3.901022     2.559064    -1.838687
 C    -5.133151    -0.603546    -2.023577
 H    -4.803997    -1.638735    -2.145049
 C    -5.977343     2.021469    -1.692845
 H    -6.302363     3.057620    -1.571032
 C    -6.487011    -0.325440    -1.865198
 H    -7.212271    -1.142426    -1.871538
 C    -6.914736     0.990504    -1.692321
 H    -7.976801     1.212103    -1.564275
 C    -3.492950    -2.306047     0.605971
 H    -2.746987    -2.964860     0.155927
 C    -4.269467    -0.082768     1.118422
 H    -4.152283     1.001419     1.070569
 C    -4.625286    -2.848814     1.207208
 H    -4.774933    -3.928710     1.248871
 C    -5.401910    -0.610909     1.726474
 H    -6.159755     0.043004     2.160140
 C    -5.575920    -1.994446     1.761826
Cl    -6.992988    -2.656847     2.502298
 C    -1.572293     2.567761    -0.422849
 H    -1.677926     2.549333    -1.507923
 C    -1.458940     1.457629     1.708285
 H    -1.509147     0.544775     2.308750
 C    -1.321162     3.791161     0.193183
 H    -1.236086     4.704835    -0.397071
 C    -1.202941     2.670533     2.337594
 H    -1.049673     2.720975     3.416988
 C    -1.137389     3.834858     1.571663
Cl    -0.760627     5.342648     2.336395
 H     1.598173    -1.221705     2.261471
 H     1.349341     0.519828     2.285591
 C     3.430833    -0.125687     2.369546
 C     4.006149     1.111644     2.679006
 H     3.399677     2.018709     2.655394
 C     4.241496    -1.267341     2.446285
 H     3.808521    -2.245307     2.222322
 C     5.354463     1.210105     3.020307
 H     5.781072     2.187901     3.256713
 C     5.588653    -1.172836     2.777951
 H     6.202124    -2.076038     2.813708
 C     6.154293     0.070666     3.058820
 H     7.213182     0.148978     3.315604
 C     3.664228    -2.211746    -0.748622
 H     2.830290    -2.914127    -0.689832
 C     4.479340     0.054315    -0.626396
 H     4.307721     1.119546    -0.458754
 C     4.949473    -2.667577    -1.028896
 H     5.146058    -3.728222    -1.193008
 C     5.767073    -0.386715    -0.907360
 H     6.599087     0.316294    -0.967237
 C     5.995338    -1.749593    -1.098102
Cl     7.601477    -2.306486    -1.427368
 C     1.779822     2.506417     0.366088
 H     1.811739     2.360612     1.444256
 C     1.645011     1.658058    -1.878993
 H     1.592185     0.814290    -2.571334
 C     1.752337     3.812989    -0.117196
 H     1.762867     4.660227     0.570232
 C     1.611874     2.954631    -2.377084
 H     1.539722     3.140869    -3.449891
 C     1.660516     4.029111    -1.487435
Cl     1.553596     5.648854    -2.091646
