  76
scf done:    -2538.949366
 C     0.744612    -3.445312     0.684003
 H     1.398167    -3.990381    -0.006567
 H     1.101876    -3.460973     1.718165
 C    -0.672953    -3.457579     0.429503
 H    -1.037330    -4.009300    -0.444118
 H    -1.370432    -3.481616     1.272140
 H    -0.197604    -1.276704     1.625671
Ir     0.098615    -1.495599     0.028521
 C     1.800447     0.957191     1.954912
 C     3.519980    -0.413450     0.125228
 C     1.703703     1.517782    -0.864105
 C    -1.702749     0.952387    -1.804863
 C    -3.366883    -0.749119    -0.206482
 C    -1.788516     1.251112     1.090046
 P    -1.688694    -0.012145    -0.233298
 P     1.774786     0.115950     0.318545
 C     0.421815    -1.843813    -1.823567
 O     0.601813    -2.053842    -2.941230
 H     2.550860     1.765743     1.924882
 H     0.808458     1.421527     2.080881
 C     2.081565     0.010194     3.112425
 H     3.084331    -0.432704     2.988815
 H     1.367238    -0.827590     3.062865
 C     1.980080     0.706603     4.460266
 H     2.701846     1.535127     4.543055
 H     0.973787     1.129448     4.611660
 H     2.178615     0.008600     5.287542
 C     4.556151     0.527064     0.039206
 H     4.326836     1.596317     0.043090
 C     3.831801    -1.774969     0.094432
 H     3.014762    -2.497684     0.153142
 C     5.880065     0.117131    -0.069358
 H     6.700598     0.833231    -0.142501
 C     5.154267    -2.200479    -0.012739
 H     5.415878    -3.259754    -0.039620
 C     6.160093    -1.246426    -0.092018
 F     7.425673    -1.642181    -0.198387
 C     1.881566     1.238343    -2.228472
 H     2.153098     0.228439    -2.545145
 C     1.366992     2.822005    -0.487670
 H     1.232006     3.076866     0.563864
 C     1.694124     2.219424    -3.193661
 H     1.818110     2.007745    -4.257099
 C     1.165431     3.815922    -1.446709
 H     0.888602     4.833877    -1.165592
 C     1.318072     3.497106    -2.788317
 F     1.097994     4.432686    -3.709113
 H    -0.815080     1.604430    -1.761333
 H    -1.470930     0.208437    -2.584856
 C    -2.952355     1.736456    -2.179806
 H    -3.262348     2.388665    -1.346372
 H    -3.789400     1.036140    -2.331315
 C    -2.735898     2.571761    -3.433527
 H    -1.918256     3.298402    -3.297175
 H    -2.464438     1.935985    -4.291242
 H    -3.642492     3.132283    -3.707075
 C    -4.479459    -0.082038     0.321583
 H    -4.358284     0.897789     0.789172
 C    -3.547147    -2.005795    -0.796222
 H    -2.675503    -2.538121    -1.183614
 C    -5.746582    -0.655916     0.264805
 H    -6.622850    -0.153109     0.677995
 C    -4.809956    -2.585089    -0.872304
 H    -4.965314    -3.564808    -1.327544
 C    -5.894505    -1.900576    -0.336183
 F    -7.103675    -2.452703    -0.393259
 C    -1.948419     0.806709     2.412215
 H    -2.071105    -0.261236     2.607857
 C    -1.611072     2.619286     0.862656
 H    -1.480399     2.998731    -0.150884
 C    -1.926818     1.697905     3.477546
 H    -2.048911     1.361050     4.508540
 C    -1.573655     3.525327     1.923487
 H    -1.428721     4.594354     1.756927
 C    -1.729756     3.051691     3.218387
 F    -1.691004     3.907818     4.235496
