  90
scf done:    -2525.363736
 C     1.337427    -3.000470    -1.293353
 H     1.827467    -2.970680    -2.271913
 H     2.006465    -3.318704    -0.487254
 C    -0.050705    -3.366465    -1.203904
 H    -0.592187    -3.619116    -2.122274
 H    -0.383435    -3.939338    -0.332809
 H     0.349007    -1.742373     0.735922
Ir     0.170650    -1.256149    -0.821432
 C     2.178221     0.495199     1.542625
 C     3.359364     0.301591    -1.119401
 C     1.285056     2.180757    -0.680175
 C    -2.620469     0.965024    -0.996684
 C    -3.095453    -1.385308     0.632901
 C    -1.367675     0.650849     1.634177
 P    -1.740578    -0.273271     0.093457
 P     1.729714     0.432942    -0.284434
 C    -0.169748    -0.837191    -2.654244
 O    -0.442575    -0.619943    -3.751904
 H     2.004324     1.520254     1.892730
 H     1.422386    -0.128986     2.031175
 C     3.573544     0.059868     1.875629
 C     4.634078     0.952363     1.681127
 H     4.419618     1.959922     1.315004
 C     3.848672    -1.245754     2.328171
 C     2.749735    -2.241422     2.563565
 H     2.126984    -2.384958     1.666922
 H     2.068096    -1.906850     3.363119
 H     3.159279    -3.216579     2.860583
 C     5.953343     0.576615     1.906759
 H     6.762659     1.289220     1.732865
 C     5.181506    -1.607954     2.556302
 H     5.397721    -2.621495     2.905514
 C     6.229398    -0.716562     2.343983
 H     7.260208    -1.032517     2.521308
 C     4.027380    -0.928445    -1.053607
 C     3.978879     1.375508    -1.766663
 C     5.917009     0.006653    -2.229106
 C     5.248512     1.224493    -2.324225
 C     5.301534    -1.070755    -1.591389
 H     3.543058    -1.775932    -0.568491
 H     5.816064    -2.031194    -1.513384
 H     6.916096    -0.106174    -2.656955
 H     5.718924     2.070758    -2.830974
 H     3.474114     2.340870    -1.834880
 C     1.706478     3.281559     0.076538
 C     0.505475     2.418744    -1.818356
 C     0.527214     4.796255    -1.392789
 C     0.129608     3.712877    -2.174369
 C     1.325000     4.576193    -0.270769
 H     2.337655     3.141862     0.955726
 H     1.656414     5.419086     0.340637
 H     0.223208     5.810581    -1.661609
 H    -0.483284     3.871625    -3.064781
 H     0.182689     1.577655    -2.432749
 H    -1.947693     1.833696    -1.047994
 H    -2.596839     0.505049    -1.994090
 C    -4.009722     1.363840    -0.603241
 C    -4.209259     2.399194     0.318615
 H    -3.344562     2.936367     0.711809
 C    -5.131747     0.684801    -1.125144
 C    -4.984617    -0.410953    -2.139892
 H    -4.404407    -1.256215    -1.740421
 H    -4.466126    -0.059780    -3.046931
 H    -5.966990    -0.795714    -2.445214
 C    -5.483789     2.748255     0.755420
 H    -5.609685     3.555625     1.480606
 C    -6.405616     1.052291    -0.679495
 H    -7.274268     0.522960    -1.080426
 C    -6.590180     2.064499     0.258327
 H    -7.597814     2.324571     0.591354
 C    -3.155090    -2.679980     0.108981
 C    -4.106150    -0.948553     1.501084
 C    -5.219380    -3.083293     1.293804
 C    -5.161840    -1.795310     1.827276
 C    -4.213586    -3.526040     0.436745
 H    -2.355052    -3.007006    -0.557638
 H    -4.249601    -4.536010     0.021491
 H    -6.050180    -3.744870     1.551722
 H    -5.948734    -1.442414     2.497923
 H    -4.072606     0.059249     1.919882
 C    -1.040380     2.010592     1.630948
 C    -1.241090    -0.068585     2.831786
 C    -0.489104     1.919141     3.982912
 C    -0.807311     0.560155     3.995103
 C    -0.607249     2.640523     2.797685
 H    -1.097135     2.593629     0.710818
 H    -0.354778     3.703343     2.770661
 H    -0.147165     2.411907     4.895993
 H    -0.713922    -0.016431     4.918560
 H    -1.476119    -1.135745     2.846629
