  76
scf done:    -2985.452466
 C    -3.735118    -0.821081    -1.853236
 H    -4.573989    -1.313233    -1.349974
 H    -4.003497     0.144086    -2.293811
 C    -2.745204    -1.635896    -2.511621
 H    -2.860712    -2.724784    -2.488295
 H    -2.286434    -1.273412    -3.436519
 H    -1.521013     0.452098    -1.752523
Ir    -1.897344    -0.765780    -0.730609
 O    -1.882072     2.471006     0.399240
 C    -3.984301     1.180518     1.300602
 C    -1.344930     0.790211     2.448113
 O     1.098759    -0.294614     0.638554
 C     0.997523    -2.781785    -0.495785
 C     1.279456    -0.384531    -2.125119
 P     0.372236    -1.067790    -0.684108
 P    -2.240880     0.883352     0.849456
 C    -2.325181    -2.305868     0.331154
 O    -2.547854    -3.267004     0.922854
 C    -0.711977     2.817674    -0.200541
 C    -0.652769     2.941302    -1.590978
 H    -1.551700     2.745854    -2.175640
 C     0.421454     3.093217     0.567728
 H     0.361530     3.026256     1.654507
 C     0.542134     3.289613    -2.213405
 H     0.602224     3.367148    -3.300077
 C     1.616712     3.450939    -0.046981
 H     2.505768     3.662288     0.549043
 C     1.676992     3.521119    -1.437259
Cl     3.193158     3.875172    -2.207836
 H    -4.490008     1.370960     0.339093
 H    -4.365965     0.203712     1.645563
 C    -4.271307     2.288031     2.304780
 H    -3.783780     3.214782     1.962126
 H    -3.811468     2.037836     3.275691
 C    -5.761656     2.523169     2.498309
 H    -6.244761     2.814557     1.552182
 H    -6.267957     1.613898     2.860120
 H    -5.950437     3.323826     3.229459
 H    -0.280047     0.828355     2.170735
 H    -1.580522     1.692399     3.036652
 C    -1.609313    -0.481012     3.241813
 H    -1.402003    -1.352436     2.601032
 H    -2.677915    -0.549137     3.510650
 C    -0.757169    -0.563752     4.499158
 H     0.315493    -0.536592     4.248423
 H    -0.957950     0.280105     5.178223
 H    -0.950264    -1.493568     5.055324
 C     2.394631    -0.386150     1.044989
 C     3.358084     0.500860     0.556766
 H     3.072240     1.243650    -0.188296
 C     2.749875    -1.325607     2.016349
 H     1.985318    -2.000376     2.406021
 C     4.667997     0.438389     1.021403
 H     5.424025     1.127048     0.640692
 C     4.058909    -1.392913     2.484579
 H     4.342836    -2.125281     3.241939
 C     5.015127    -0.511820     1.981473
Cl     6.646193    -0.592459     2.560077
 H     2.098951    -2.777261    -0.440178
 H     0.626469    -3.131237     0.482878
 C     0.505181    -3.712051    -1.599315
 H     0.868804    -3.354142    -2.577664
 H    -0.593716    -3.651981    -1.654023
 C     0.943210    -5.152102    -1.384957
 H     2.041055    -5.239890    -1.354928
 H     0.552449    -5.546884    -0.433627
 H     0.577336    -5.805006    -2.191608
 H     0.598018    -0.543104    -2.977197
 H     1.270787     0.705426    -1.953288
 C     2.679924    -0.887412    -2.456019
 H     2.628518    -1.945390    -2.761862
 H     3.322522    -0.863722    -1.563030
 C     3.324104    -0.065316    -3.562678
 H     2.715987    -0.087448    -4.481299
 H     3.429517     0.989989    -3.263816
 H     4.325503    -0.445459    -3.815204
