 108
scf done:    -3057.724990
 C     0.691733    -1.768876     2.727494
 H     1.381103    -2.611624     2.606424
 H     1.050056    -1.027589     3.448474
 C    -0.724156    -1.997836     2.588449
 H    -1.081254    -3.009824     2.367129
 H    -1.422490    -1.422742     3.202970
 H    -0.329680     0.393842     1.818837
Ir     0.000447    -0.905550     0.891901
 C     1.373960     2.131062    -0.431650
 C     3.208816     0.718511     1.171223
 C     2.478106    -0.458210    -1.444639
 C    -1.663461    -0.413885    -2.185101
 C    -3.496073    -1.009082    -0.102297
 C    -2.161126     1.601515     0.006825
 P    -1.854200    -0.183713    -0.367750
 P     1.772688     0.398720     0.034703
 C     0.383658    -2.466043    -0.132337
 O     0.625964    -3.426197    -0.727090
 H     0.617900     2.076595    -1.222931
 H     0.872116     2.518158     0.469506
 C     2.540495     3.019517    -0.833904
 H     3.136232     2.521242    -1.615074
 H     3.215057     3.144947     0.028711
 C     2.078810     4.382391    -1.326607
 H     1.476090     4.287007    -2.244807
 H     1.450363     4.886758    -0.574611
 H     2.928402     5.044435    -1.555957
 C     4.570133     0.526616     0.864115
 O     4.882252     0.314446    -0.427188
 C     6.153762    -0.141122    -0.778781
 H     6.109786    -0.382535    -1.849015
 H     6.930239     0.627311    -0.614416
 H     6.431657    -1.051482    -0.218847
 C     2.906656     1.182173     2.467975
 O     1.641007     1.586327     2.658186
 C     1.160284     1.856012     3.939605
 H     0.085312     2.047568     3.825823
 H     1.640588     2.747947     4.380070
 H     1.300876     0.997663     4.619030
 C     3.880301     1.255046     3.471902
 H     3.617742     1.579684     4.478196
 C     5.554654     0.594727     1.859956
 H     6.600479     0.410349     1.616760
 C     5.195249     0.934996     3.158579
 H     5.963239     0.986647     3.934184
 C     2.252946    -0.098025    -2.784193
 O     1.582826     1.055696    -3.017241
 C     1.408569     1.498409    -4.329968
 H     0.916699     2.476805    -4.264763
 H     2.372493     1.621616    -4.853883
 H     0.768075     0.815056    -4.915108
 C     3.140330    -1.682687    -1.211688
 O     3.316943    -1.999631     0.082828
 C     3.791921    -3.264596     0.440890
 H     3.768368    -3.301324     1.537264
 H     4.830480    -3.425497     0.100411
 H     3.147985    -4.063217     0.035927
 C     3.581392    -2.499393    -2.255009
 H     4.085239    -3.442299    -2.047191
 C     2.693317    -0.910305    -3.839734
 H     2.511074    -0.620883    -4.873338
 C     3.354834    -2.099790    -3.566512
 H     3.689772    -2.732490    -4.391741
 H    -0.797591     0.194664    -2.481971
 H    -1.345039    -1.468179    -2.254945
 C    -2.875231    -0.164650    -3.069216
 H    -3.301120     0.824290    -2.843398
 H    -3.659433    -0.898002    -2.819577
 C    -2.533940    -0.259955    -4.548444
 H    -1.793645     0.505429    -4.834962
 H    -2.098548    -1.241507    -4.797079
 H    -3.422486    -0.117693    -5.183250
 C    -4.719376    -0.318535     0.010931
 O    -4.714189     0.986306    -0.320386
 C    -5.759383     1.821025     0.080112
 H    -5.433770     2.847635    -0.134969
 H    -6.691890     1.616012    -0.475510
 H    -5.960987     1.729936     1.161622
 C    -3.536647    -2.412181     0.033378
 O    -2.409127    -3.076969    -0.272405
 C    -2.348532    -4.463144    -0.081519
 H    -1.336250    -4.768019    -0.369611
 H    -3.081408    -4.992664    -0.715127
 H    -2.522380    -4.735235     0.973894
 C    -4.706466    -3.072854     0.434312
 H    -4.716072    -4.153168     0.568891
 C    -5.892070    -0.968394     0.416080
 H    -6.823278    -0.413341     0.525140
 C    -5.866865    -2.338649     0.642027
 H    -6.779321    -2.851084     0.956468
 C    -2.545553     1.897066     1.332608
 O    -2.905664     0.835517     2.072452
 C    -3.135300     0.973437     3.441836
 H    -3.359910    -0.031291     3.820678
 H    -2.245626     1.363190     3.965827
 H    -3.994913     1.634711     3.652104
 C    -1.910038     2.687383    -0.843685
 O    -1.587817     2.414060    -2.130812
 C    -1.569712     3.450817    -3.067400
 H    -1.453158     2.979544    -4.051989
 H    -0.728389     4.146330    -2.901920
 H    -2.512460     4.024843    -3.058854
 C    -1.967289     4.008870    -0.373552
 H    -1.738076     4.841016    -1.037486
 C    -2.590093     3.206574     1.816626
 H    -2.871255     3.409346     2.849493
 C    -2.290046     4.255787     0.953215
 H    -2.317666     5.284622     1.319682
