  88
scf done:    -3144.359581
 C    -1.988991    -2.600769     2.515599
 H    -2.663440    -2.356334     3.342109
 H    -2.454718    -3.210345     1.735279
 C    -0.589585    -2.765950     2.777127
 H    -0.219922    -2.640680     3.799337
 H    -0.015922    -3.484654     2.186051
 H    -0.737521    -1.857780     0.402897
Ir    -0.903934    -0.902853     1.715735
 C    -4.210378    -0.304469     0.622651
 O    -2.726128     1.809093     0.679841
 O    -2.264856     0.223999    -1.192208
 C     2.029581     1.092516     2.035460
 O     2.358337    -1.297644     1.018484
 O     1.131109     0.410233    -0.497850
 P     1.139491    -0.170505     1.048039
 P    -2.451828     0.190848     0.458848
 C    -1.049183     0.153074     3.321605
 O    -1.114537     0.792298     4.273240
 H    -4.466845    -0.081126     1.670489
 H    -4.214828    -1.401216     0.526718
 C    -5.139375     0.355344    -0.348940
 C    -5.418434    -0.240696    -1.583843
 H    -4.981465    -1.212914    -1.826496
 C    -5.703265     1.604401    -0.063441
 H    -5.481573     2.085824     0.891594
 C    -6.243481     0.392238    -2.510271
 H    -6.451132    -0.089467    -3.468709
 C    -6.529212     2.238221    -0.988099
 H    -6.963736     3.211610    -0.747869
 C    -6.801783     1.634829    -2.215287
 H    -7.450574     2.131918    -2.940310
 C    -1.773917     2.767913     0.476860
 C    -1.620593     3.323301    -0.794532
 H    -2.244519     2.950675    -1.608015
 C    -1.011969     3.232265     1.548565
 H    -1.172879     2.811980     2.541960
 C    -0.686053     4.334582    -0.999291
 H    -0.546060     4.791321    -1.980895
 C    -0.067630     4.236352     1.344477
 H     0.543386     4.618942     2.164288
 C     0.090842     4.766147     0.070305
 F     1.018465     5.701996    -0.132587
 C    -1.679748    -0.734604    -1.963217
 C    -0.707086    -0.339640    -2.881374
 H    -0.416864     0.709872    -2.925559
 C    -2.054298    -2.077000    -1.877027
 H    -2.809950    -2.388867    -1.154938
 C    -0.099778    -1.281509    -3.705972
 H     0.676133    -0.994961    -4.417853
 C    -1.451007    -3.024667    -2.699027
 H    -1.720765    -4.080204    -2.638909
 C    -0.478853    -2.614676    -3.600568
 F     0.125995    -3.530913    -4.363112
 H     2.054782     0.656403     3.047620
 H     1.331367     1.941657     2.067904
 C     3.391454     1.523835     1.578600
 C     3.558936     2.734078     0.895430
 H     2.695377     3.377888     0.712404
 C     4.513018     0.717539     1.804719
 H     4.393469    -0.228540     2.336336
 C     4.811816     3.116509     0.424095
 H     4.920141     4.058000    -0.119109
 C     5.767191     1.101643     1.337550
 H     6.632433     0.459283     1.518714
 C     5.919975     2.298819     0.639638
 H     6.902657     2.596656     0.266628
 C     2.236619    -2.568268     0.522663
 C     2.759652    -3.610604     1.287935
 H     3.194826    -3.382980     2.262362
 C     1.664704    -2.825326    -0.724631
 H     1.250428    -2.009734    -1.319030
 C     2.715922    -4.915800     0.808544
 H     3.116633    -5.749187     1.388121
 C     1.622463    -4.131361    -1.207962
 H     1.196297    -4.353900    -2.187054
 C     2.146427    -5.159978    -0.436419
 F     2.106870    -6.409475    -0.899529
 C     2.148748     0.901162    -1.278787
 C     3.364699     0.239050    -1.455249
 H     3.571042    -0.688358    -0.924793
 C     1.891841     2.091291    -1.957703
 H     0.936897     2.589112    -1.789754
 C     4.332697     0.794938    -2.286435
 H     5.299912     0.308875    -2.423202
 C     2.854483     2.643261    -2.796697
 H     2.677871     3.581012    -3.326456
 C     4.070605     1.989134    -2.945556
 F     5.005708     2.518185    -3.735635
