  96
scf done:    -2452.596126
 C     2.742971    -0.706829    -2.331165
 H     3.257491     0.082149    -2.890205
 H     3.411155    -1.298481    -1.699904
 C     1.599347    -1.343643    -2.925738
 H     1.271871    -1.022224    -3.920040
 H     1.441315    -2.409868    -2.738587
 H     1.235087    -1.427239    -0.400209
Ir     0.961786    -0.085098    -1.285830
 C     1.393499     0.138731     2.261362
 O     3.022873     1.605957     0.872090
 O     0.553500     2.321866     0.883101
 C    -2.276546     1.121665    -0.854293
 O    -2.187077    -1.482501    -1.453107
 O    -1.343440    -0.839157     0.895453
 P    -1.233579    -0.386092    -0.681963
 P     1.513431     0.996567     0.643109
 C     0.704976     1.473345    -2.391005
 O     0.552893     2.406642    -3.041993
 H     0.321203    -0.058966     2.392888
 H     1.727521     0.854221     3.027943
 C     2.188165    -1.129624     2.321176
 C     3.556138    -1.101185     2.614447
 H     4.035193    -0.142937     2.829442
 C     1.584432    -2.360297     2.035501
 H     0.519281    -2.382537     1.791669
 C     4.306597    -2.275013     2.617696
 H     5.374982    -2.234724     2.844490
 C     2.333834    -3.534490     2.042199
 H     1.849086    -4.487168     1.814226
 C     3.697701    -3.495816     2.329499
 H     4.285647    -4.416765     2.330547
 C     3.767728     2.193507    -0.186385
 H     3.396016     1.808472    -1.152460
 H     3.605035     3.285031    -0.167210
 C     5.231778     1.861816     0.002927
 H     5.823908     2.488038    -0.687148
 H     5.522912     2.168145     1.023517
 C     5.554996     0.389299    -0.211703
 H     5.397357     0.138002    -1.273920
 H     4.830204    -0.220791     0.350490
 C     6.967686     0.017097     0.204581
 H     7.722345     0.598472    -0.350197
 H     7.130350     0.210147     1.277844
 H     7.172121    -1.049387     0.025558
 C     0.741437     3.223791     1.963348
 H     0.169247     2.864884     2.838980
 H     1.807527     3.257372     2.244170
 C     0.261293     4.598783     1.552312
 H     0.448308     5.290786     2.392323
 H     0.882584     4.951980     0.711054
 C    -1.207636     4.643246     1.156916
 H    -1.818086     4.261803     1.995902
 H    -1.364564     3.943657     0.320461
 C    -1.685237     6.029813     0.759993
 H    -1.568697     6.748950     1.586832
 H    -1.111158     6.417030    -0.096824
 H    -2.746965     6.023234     0.470646
 H    -2.091849     1.398521    -1.906420
 H    -1.741095     1.871671    -0.250514
 C    -3.752848     1.149039    -0.570544
 C    -4.268300     2.082385     0.339119
 H    -3.582503     2.762416     0.851990
 C    -4.650699     0.300864    -1.232034
 H    -4.262824    -0.429901    -1.942913
 C    -5.635688     2.157945     0.595640
 H    -6.013362     2.894836     1.308650
 C    -6.017749     0.371414    -0.971545
 H    -6.700974    -0.303375    -1.493323
 C    -6.517144     1.297168    -0.056194
 H    -7.589682     1.350549     0.144430
 C    -1.625866    -2.511445    -2.267138
 H    -2.466046    -2.887485    -2.872065
 H    -0.880825    -2.064182    -2.943488
 C    -0.993431    -3.627223    -1.462617
 H    -0.519775    -4.326603    -2.174433
 H    -0.168144    -3.199002    -0.867800
 C    -1.960003    -4.375814    -0.558631
 H    -2.719827    -4.886789    -1.176482
 H    -2.509005    -3.642346     0.050139
 C    -1.269014    -5.378687     0.350192
 H    -0.707623    -6.129852    -0.228866
 H    -0.550176    -4.874667     1.016579
 H    -1.988652    -5.917699     0.985110
 C    -2.444316    -0.640999     1.770675
 H    -2.029789    -0.747501     2.787197
 H    -2.810263     0.393761     1.682341
 C    -3.583879    -1.615998     1.563239
 H    -3.857079    -1.621904     0.497128
 H    -3.237995    -2.635002     1.806103
 C    -4.804399    -1.259121     2.399150
 H    -5.119089    -0.231974     2.147558
 H    -4.532081    -1.244801     3.469965
 C    -5.968657    -2.209934     2.176435
 H    -6.282739    -2.200892     1.120570
 H    -5.697462    -3.246712     2.433052
 H    -6.841685    -1.932129     2.786112
