  96
scf done:    -2004.319464
 C     0.822331    -3.208416     0.156519
 H     1.749742    -3.526376    -0.332778
 H     0.808151    -3.426464     1.229188
 C    -0.411450    -3.286126    -0.586524
 H    -0.382473    -3.652120    -1.618479
 H    -1.327260    -3.572948    -0.059811
 H    -0.694519    -1.346865     1.076785
Ir     0.150061    -1.224289    -0.332907
 C     0.885443     1.226545     2.236650
 C     3.017022    -0.568800     1.573035
 C     2.293879     1.581083    -0.232715
 C    -1.421606     0.882265    -2.644891
 C    -3.238655    -0.823592    -1.182757
 C    -2.090329     1.480048     0.162494
 P    -1.655409     0.098807    -0.988826
 P     1.549554     0.253424     0.815309
 C     1.111752    -1.125400    -1.974045
 O     1.692470    -1.044780    -2.966833
 H     1.718817     1.794254     2.684878
 H     0.195804     1.969754     1.803385
 C     0.168773     0.412467     3.304388
 H     0.881700    -0.282493     3.779963
 H    -0.585313    -0.227759     2.818509
 C    -0.483031     1.286192     4.364752
 H     0.255981     1.922719     4.877749
 H    -1.237526     1.954778     3.917916
 H    -0.989116     0.679186     5.130737
 H     3.559612     0.145397     2.216931
 H     2.603764    -1.350625     2.231624
 C     3.945395    -1.199404     0.545754
 H     3.339285    -1.791203    -0.160524
 H     4.432127    -0.410392    -0.054959
 C     5.014852    -2.088132     1.164140
 H     4.524630    -2.884012     1.753759
 H     5.612457    -1.503307     1.887624
 C     5.942150    -2.721518     0.136423
 H     5.336990    -3.298666    -0.584747
 H     6.426799    -1.923693    -0.454188
 C     7.003016    -3.620072     0.750935
 H     7.655976    -4.062951    -0.016400
 H     6.545581    -4.448079     1.316150
 H     7.644545    -3.060710     1.451111
 H     2.704975     1.065161    -1.116621
 H     1.438436     2.167980    -0.611010
 C     3.342531     2.493843     0.385090
 H     2.920007     3.026476     1.254229
 H     4.178917     1.890063     0.777892
 C     3.891764     3.514669    -0.603277
 H     3.058854     4.123169    -1.000794
 H     4.314879     2.984390    -1.475777
 C     4.949561     4.433069    -0.007526
 H     4.522572     4.957955     0.865596
 H     5.777228     3.819309     0.390273
 C     5.495908     5.448233    -0.998326
 H     6.257896     6.095980    -0.539086
 H     4.695591     6.099280    -1.385615
 H     5.960758     4.950348    -1.864469
 H    -0.444538     1.392031    -2.587918
 H    -1.256911     0.026456    -3.322999
 C    -2.474608     1.818510    -3.222368
 H    -2.546888     2.724297    -2.598673
 H    -3.468713     1.342380    -3.185428
 C    -2.159384     2.221456    -4.655828
 H    -1.180818     2.723260    -4.722150
 H    -2.121316     1.341311    -5.317192
 H    -2.917146     2.910749    -5.058514
 H    -4.025162    -0.152587    -1.568490
 H    -3.038767    -1.575245    -1.964995
 C    -3.697866    -1.514845     0.093220
 H    -2.864983    -2.118430     0.487137
 H    -3.913708    -0.762621     0.872795
 C    -4.925389    -2.391255    -0.108746
 H    -4.705802    -3.147989    -0.883868
 H    -5.756169    -1.782655    -0.511582
 C    -5.382423    -3.091450     1.163372
 H    -4.546869    -3.694201     1.560721
 H    -5.595216    -2.332323     1.937190
 C    -6.603094    -3.974942     0.963614
 H    -6.907859    -4.466612     1.899950
 H    -6.405914    -4.765825     0.222049
 H    -7.463991    -3.391413     0.598864
 H    -1.898092     1.069498     1.166776
 H    -1.314027     2.249350     0.002919
 C    -3.478844     2.104689     0.126386
 H    -3.697243     2.518176    -0.870438
 H    -4.240841     1.327157     0.301687
 C    -3.643537     3.200349     1.171969
 H    -2.888632     3.989132     0.997775
 H    -3.414320     2.785990     2.171222
 C    -5.031538     3.824946     1.190396
 H    -5.256838     4.234225     0.189524
 H    -5.781162     3.032418     1.363002
 C    -5.189138     4.915665     2.237340
 H    -6.201619     5.346737     2.227053
 H    -4.475763     5.738300     2.067837
 H    -5.004136     4.525431     3.251134
