 100
scf done:    -2456.454752
 C     0.023117    -1.216893    -3.387487
 H     0.470114    -0.705476    -4.246650
 H     0.409376    -2.230434    -3.240621
 C    -1.351395    -0.940835    -3.056819
 H    -1.906346    -0.225207    -3.673415
 H    -1.980494    -1.750092    -2.671953
 H    -0.100387    -1.531925    -0.851183
Ir    -0.068946    -0.055857    -1.572301
 C     3.183865    -1.315185    -1.119792
 C     2.971067     1.557973    -0.730909
 C     1.992729    -0.316199     1.336886
 C    -1.104420     2.078709     1.143091
 C    -3.163292     1.199363    -0.749113
 C    -2.090679    -0.505456     1.433908
 P    -1.584784     0.650859     0.069658
 P     2.010073    -0.030072    -0.521299
 C     0.089505     1.609500    -2.487616
 O     0.229569     2.606510    -3.047886
 H     4.087578    -1.313432    -0.489381
 H     2.675215    -2.274013    -0.926953
 C     3.529855    -1.204245    -2.597361
 H     4.082631    -0.267791    -2.787600
 H     2.597487    -1.123781    -3.176904
 C     4.357256    -2.382719    -3.086767
 H     5.302822    -2.471934    -2.527804
 H     3.809858    -3.329989    -2.958021
 H     4.606222    -2.283697    -4.154262
 H     3.198375     1.592272    -1.807994
 H     2.245795     2.362688    -0.553797
 C     4.207714     1.728961     0.095887
 C     5.393296     1.082275    -0.277923
 H     5.410470     0.500097    -1.201670
 C     4.203100     2.520092     1.265885
 C     2.994873     3.313127     1.677057
 H     2.101289     2.685238     1.814865
 H     2.732450     4.068171     0.918107
 H     3.175975     3.842246     2.622502
 C     6.545658     1.166025     0.496809
 H     7.452569     0.644113     0.183452
 C     5.370172     2.592443     2.035714
 H     5.364406     3.201163     2.943990
 C     6.531736     1.917234     1.669308
 H     7.426063     1.989647     2.292409
 H     2.245165     0.647309     1.800042
 H     0.943897    -0.529224     1.578246
 C     2.898587    -1.386022     1.873433
 C     4.188776    -1.052599     2.300669
 H     4.508140    -0.009011     2.262789
 C     2.478408    -2.731580     1.929966
 C     1.091484    -3.137164     1.520869
 H     0.811012    -2.742595     0.531917
 H     0.336722    -2.760350     2.232356
 H     0.990777    -4.230583     1.491814
 C     5.072264    -2.024828     2.760798
 H     6.075818    -1.737065     3.082753
 C     3.379212    -3.695143     2.396131
 H     3.056846    -4.739310     2.438148
 C     4.667156    -3.356082     2.804174
 H     5.349503    -4.132096     3.159335
 H    -1.929312     2.279528     1.847041
 H    -0.261018     1.716063     1.756228
 C    -0.708700     3.346085     0.401249
 H    -1.479103     3.604384    -0.345282
 H     0.204912     3.154493    -0.182996
 C    -0.501046     4.531110     1.332130
 H    -1.432983     4.792074     1.859070
 H     0.256947     4.312687     2.100366
 H    -0.170694     5.423392     0.779264
 H    -2.864173     2.107465    -1.299939
 H    -3.327447     0.436766    -1.519730
 C    -4.401698     1.439883     0.062794
 C    -4.467041     2.519125     0.954961
 H    -3.617101     3.200824     1.029314
 C    -5.537685     0.613629    -0.091463
 C    -5.575620    -0.500439    -1.096456
 H    -4.770604    -1.231777    -0.935812
 H    -5.468485    -0.114281    -2.123329
 H    -6.529766    -1.040888    -1.041402
 C    -5.600188     2.764556     1.726491
 H    -5.620069     3.613221     2.414185
 C    -6.667485     0.874451     0.692272
 H    -7.543399     0.230365     0.576689
 C    -6.705785     1.927859     1.602033
 H    -7.603064     2.102357     2.200434
 H    -1.138137    -0.906963     1.818718
 H    -2.511435     0.122753     2.229346
 C    -3.031746    -1.633532     1.112826
 C    -2.714440    -2.554188     0.106769
 H    -1.783419    -2.418365    -0.447636
 C    -4.225357    -1.798479     1.848056
 C    -4.602824    -0.874060     2.970012
 H    -4.664359     0.173400     2.637755
 H    -3.871852    -0.919514     3.793978
 H    -5.584149    -1.144737     3.382226
 C    -3.562922    -3.615394    -0.198219
 H    -3.293144    -4.316231    -0.991740
 C    -5.066818    -2.869132     1.523887
 H    -5.995201    -2.994961     2.087783
 C    -4.750594    -3.771240     0.511458
 H    -5.429928    -4.595778     0.282201
