  76
scf done:    -3980.061950
 C     0.642448    -3.527574     0.776437
 H     1.295742    -4.102432     0.110399
 H     0.979593    -3.525767     1.817372
 C    -0.769576    -3.510975     0.495917
 H    -1.132256    -4.072593    -0.371991
 H    -1.482832    -3.496812     1.325414
 H    -0.258033    -1.317030     1.649399
Ir     0.057072    -1.577965     0.063358
 C     1.769834     0.931572     1.933641
 C     3.500956    -0.572221     0.228279
 C     1.757337     1.349544    -0.905972
 C    -1.672544     0.859260    -1.860391
 C    -3.388546    -0.765383    -0.240518
 C    -1.770948     1.223792     1.030844
 P    -1.694028    -0.066710    -0.266402
 P     1.762732     0.004375     0.343812
 C     0.399579    -1.987643    -1.773793
 O     0.587531    -2.241227    -2.880704
 H     2.566869     1.693351     1.886237
 H     0.804247     1.459618     1.991945
 C     1.948887     0.049066     3.159607
 H     2.907308    -0.492916     3.088502
 H     1.160520    -0.720763     3.156613
 C     1.898644     0.852352     4.450145
 H     2.711236     1.595226     4.494228
 H     0.947731     1.401759     4.540884
 H     1.996174     0.200643     5.331436
 C     3.782679    -1.938419     0.291747
 H     2.949481    -2.640202     0.372913
 C     4.559985     0.337783     0.109897
 H     4.356938     1.410174     0.040473
 C     5.097338    -2.397468     0.246943
 H     5.321063    -3.464271     0.295877
 C     5.876275    -0.106254     0.061407
 H     6.704753     0.597233    -0.035604
 C     6.136185    -1.476457     0.132672
Cl     7.773105    -2.034934     0.070576
 C     1.454366     2.679552    -0.597849
 H     1.319463     2.991375     0.438158
 C     1.943298     1.001401    -2.252605
 H     2.193641    -0.028250    -2.519026
 C     1.284869     3.629044    -1.605751
 H     1.029742     4.662166    -1.363140
 C     1.786670     1.937793    -3.266098
 H     1.915791     1.657439    -4.312564
 C     1.433077     3.247898    -2.935961
Cl     1.163005     4.406000    -4.193767
 H    -0.763608     1.482253    -1.830758
 H    -1.464274     0.088312    -2.620785
 C    -2.894897     1.674895    -2.257095
 H    -3.173427     2.368299    -1.446032
 H    -3.758465     1.001120    -2.377226
 C    -2.658261     2.454359    -3.542762
 H    -1.813550     3.155113    -3.443195
 H    -2.419235     1.776953    -4.377971
 H    -3.546839     3.036594    -3.829644
 C    -3.593715    -2.024061    -0.816113
 H    -2.733413    -2.581846    -1.193240
 C    -4.488735    -0.068435     0.272927
 H    -4.350477     0.914771     0.728790
 C    -4.868493    -2.575773    -0.892774
 H    -5.029160    -3.557239    -1.341561
 C    -5.767656    -0.614922     0.215639
 H    -6.625999    -0.076531     0.620673
 C    -5.950139    -1.866222    -0.371885
Cl    -7.538168    -2.550152    -0.447834
 C    -1.526845     2.577809     0.784363
 H    -1.383777     2.937880    -0.234770
 C    -1.952128     0.807202     2.358798
 H    -2.132218    -0.249426     2.570869
 C    -1.428488     3.492272     1.833803
 H    -1.221692     4.546000     1.639179
 C    -1.870504     1.707813     3.411996
 H    -2.003802     1.377260     4.443242
 C    -1.589947     3.049541     3.143478
Cl    -1.426094     4.164604     4.456141
