  56
scf done:    -1680.442180
 C    -1.159633    -3.223716    -0.540671
 H    -1.584517    -3.695340     0.351872
 H    -1.874266    -3.141073    -1.365778
 C     0.232072    -3.444100    -0.844790
 H     0.825483    -4.074810    -0.174324
 H     0.538290    -3.520913    -1.892772
 H    -0.367168    -1.104014    -1.764899
Ir    -0.049411    -1.418105    -0.174858
 C    -3.311333    -0.233694    -0.319383
 C    -1.789559     0.936934     1.850988
 C    -1.355074     1.833321    -0.806379
 C     2.458980     0.919182     0.744089
 C     3.424053    -1.423593    -0.645846
 C     2.110250     0.616925    -2.119342
 P     1.964700    -0.322090    -0.556549
 P    -1.588433     0.286859     0.149657
 C     0.288917    -1.782364     1.666516
 O     0.494291    -1.957021     2.786927
 H    -3.509088    -1.127411     0.292204
 H    -3.221927    -0.583402    -1.359463
 C    -4.385044     0.796499    -0.167038
 C    -4.705257     1.664730    -1.219780
 H    -4.190512     1.554858    -2.178288
 C    -5.076091     0.943020     1.043606
 H    -4.854268     0.263862     1.871349
 C    -5.674007     2.653875    -1.065172
 H    -5.910401     3.316548    -1.901357
 C    -6.045406     1.931055     1.201687
 H    -6.574466     2.023820     2.153353
 C    -6.345641     2.793813     0.148508
 H    -7.107169     3.567530     0.270495
 H    -2.043084     0.107122     2.526636
 H    -0.824889     1.352300     2.177970
 H    -2.564811     1.715081     1.915225
 H    -2.170216     2.553573    -0.640819
 H    -0.402129     2.290462    -0.501591
 H    -1.290575     1.585003    -1.875415
 H     2.436389     0.359569     1.692720
 H     1.627498     1.640272     0.785584
 C     3.770132     1.610340     0.543914
 C     3.851040     2.799967    -0.192568
 H     2.935234     3.248532    -0.587682
 C     4.956075     1.066851     1.055893
 H     4.912207     0.147475     1.646077
 C     5.077061     3.421102    -0.419736
 H     5.116095     4.350210    -0.993622
 C     6.183676     1.685429     0.830397
 H     7.095415     1.245934     1.242275
 C     6.249643     2.863778     0.088224
 H     7.211663     3.350585    -0.087563
 H     3.512651    -1.976351     0.300601
 H     3.237787    -2.156815    -1.443671
 H     4.357786    -0.877562    -0.848615
 H     1.927539    -0.083889    -2.946120
 H     1.331249     1.391035    -2.156766
 H     3.101372     1.080453    -2.234319
