  96
scf done:    -3895.503806
 C     2.026897    -3.837253     0.648449
 H     2.635660    -4.295483    -0.136214
 H     2.570423    -3.660000     1.579831
 C     0.620593    -4.083295     0.685724
 H     0.168711    -4.733368    -0.069641
 H     0.098099    -4.094998     1.645827
 H     0.963650    -1.701736     1.581877
Ir     0.974638    -2.059885    -0.009681
 O     2.623771     0.813501     0.871362
 O     4.088219    -1.070822     0.171595
 O     2.899976     0.243723    -1.579467
 O    -1.599409    -0.463730    -1.456956
 O    -2.327728    -2.192701     0.255321
 O    -1.388975     0.048002     1.052425
 P    -1.094594    -1.136970    -0.029815
 P     2.590879    -0.491534    -0.132770
 C     1.036990    -2.576675    -1.875977
 O     1.084490    -2.892765    -2.974159
 C     1.590510     1.326148     1.610444
 C     1.300235     0.786237     2.862092
 H     1.871455    -0.070516     3.221572
 C     0.885404     2.429462     1.134468
 H     1.152593     2.855315     0.165782
 C     0.286896     1.341436     3.635679
 H     0.040931     0.926417     4.614035
 C    -0.132226     2.983748     1.904758
 H    -0.701601     3.840309     1.541014
 C    -0.429711     2.433904     3.150168
Cl    -1.708051     3.105076     4.103788
 C     5.230658    -0.293836     0.144011
 C     5.849211    -0.041906    -1.079050
 H     5.397049    -0.441559    -1.987062
 C     5.759966     0.178331     1.352851
 C     5.093334    -0.113424     2.662428
 H     4.318687     0.638080     2.881316
 H     4.599852    -1.095355     2.645606
 H     5.821762    -0.096700     3.484960
 C     7.013685     0.719273    -1.118310
 H     7.496408     0.923005    -2.076642
 C     6.935809     0.934328     1.282408
 H     7.372646     1.309253     2.212117
 C     7.556442     1.212552     0.066742
 H     8.471862     1.808167     0.046756
 C     2.641194     1.547120    -1.924955
 C     3.381660     2.586502    -1.362547
 H     4.160048     2.351555    -0.635863
 C     1.648563     1.783228    -2.888166
 C     0.913316     0.640372    -3.516491
 H     1.614495    -0.074938    -3.972375
 H     0.326610     0.078862    -2.775108
 H     0.222521     0.997856    -4.291501
 C     3.104639     3.901887    -1.727925
 H     3.677983     4.717740    -1.282187
 C     1.392806     3.114582    -3.234288
 H     0.616975     3.321400    -3.976334
 C     2.100799     4.168254    -2.657491
 H     1.876705     5.197607    -2.946357
 C    -2.266452     0.720322    -1.641612
 C    -1.582949     1.925325    -1.488174
 H    -0.534391     1.915745    -1.193955
 C    -3.605225     0.708836    -2.028408
 H    -4.125666    -0.241883    -2.150125
 C    -2.243588     3.131008    -1.698524
 H    -1.716555     4.078996    -1.579256
 C    -4.269346     1.913902    -2.238746
 H    -5.319971     1.921153    -2.532342
 C    -3.589196     3.119530    -2.066091
Cl    -4.421537     4.618164    -2.316824
 C    -3.554807    -2.251974    -0.371257
 C    -4.676592    -1.739201     0.275813
 H    -4.563346    -1.279500     1.257527
 C    -3.645776    -2.881038    -1.622545
 C    -2.432858    -3.452223    -2.288160
 H    -1.836466    -2.658517    -2.764713
 H    -1.778980    -3.950413    -1.557404
 H    -2.713065    -4.176582    -3.064608
 C    -5.921030    -1.810547    -0.344514
 H    -6.798222    -1.400181     0.160359
 C    -4.909380    -2.936324    -2.221458
 H    -5.004118    -3.417536    -3.198615
 C    -6.037329    -2.401247    -1.601285
 H    -7.009477    -2.458666    -2.096019
 C    -2.502980     0.262048     1.837574
 C    -3.375013     1.293056     1.500311
 H    -3.175471     1.888396     0.610489
 C    -2.686951    -0.517759     2.988634
 C    -1.736503    -1.618380     3.342731
 H    -1.931883    -2.515063     2.733095
 H    -0.696505    -1.323996     3.143477
 H    -1.833998    -1.895345     4.401276
 C    -4.483061     1.547891     2.302163
 H    -5.166661     2.356445     2.034940
 C    -3.808708    -0.235020     3.776524
 H    -3.974978    -0.829535     4.678845
 C    -4.705601     0.776891     3.440726
 H    -5.570906     0.971122     4.078184
