 104
scf done:    -2308.942440
 C    -0.064164    -0.078033    -3.559463
 H    -0.314456    -1.040877    -4.017566
 H    -0.716318     0.738986    -3.882413
 C     1.309922     0.214223    -3.260978
 H     2.074341    -0.533637    -3.498861
 H     1.664273     1.244244    -3.366211
 H    -0.069205     1.483915    -1.474627
Ir     0.238362    -0.140826    -1.421780
 C    -2.842127    -1.899551    -0.777359
 C    -2.616428     0.471585     0.837532
 C    -3.036364     0.672031    -2.007025
 C     1.462325     1.382618     1.738101
 C     2.999997    -0.816092     0.700261
 C     2.977686     1.756617    -0.618948
 P     1.846307     0.517241     0.151182
 P    -2.013075    -0.224511    -0.753271
 C     0.665185    -1.988790    -1.369694
 O     0.972864    -3.102251    -1.348493
 H    -2.389249    -2.433277    -1.626023
 H    -3.903670    -1.734975    -1.018186
 C    -2.739727    -2.707402     0.482855
 C    -3.732940    -2.609014     1.467696
 H    -4.578750    -1.934540     1.309624
 C    -1.675139    -3.590229     0.705778
 H    -0.896018    -3.700677    -0.049154
 C    -3.670573    -3.368719     2.633055
 H    -4.461493    -3.278273     3.381552
 C    -1.611227    -4.353854     1.870558
 H    -0.775145    -5.042036     2.016691
 C    -2.608743    -4.249131     2.838749
 H    -2.560701    -4.852452     3.748328
 H    -3.714853     0.382252     0.880387
 H    -2.218213    -0.179517     1.629360
 C    -2.172310     1.902871     1.082853
 H    -1.089738     1.968865     0.891354
 H    -2.642685     2.583817     0.350789
 C    -2.475402     2.372102     2.498609
 H    -2.077185     1.629965     3.212000
 H    -3.569217     2.389603     2.658068
 C    -1.890950     3.737690     2.827160
 H    -0.799757     3.706951     2.656668
 H    -2.282790     4.488816     2.118184
 C    -2.166793     4.178990     4.255077
 H    -1.726486     5.164209     4.472297
 H    -1.749574     3.457401     4.975843
 H    -3.249239     4.248041     4.449997
 H    -2.501279     1.615712    -2.199388
 H    -2.933833     0.084052    -2.934701
 C    -4.500050     0.938280    -1.691596
 H    -5.013097     0.003642    -1.401961
 H    -4.578835     1.606610    -0.817267
 C    -5.247973     1.565985    -2.861102
 H    -5.185566     0.894870    -3.736986
 H    -4.734229     2.496694    -3.162978
 C    -6.708709     1.869401    -2.558489
 H    -7.215881     0.936832    -2.252894
 H    -6.764357     2.539007    -1.681779
 C    -7.450523     2.495347    -3.728388
 H    -8.502222     2.703084    -3.479525
 H    -7.441615     1.831710    -4.608016
 H    -6.986126     3.447393    -4.031982
 H     0.907863     2.291749     1.445791
 H     2.419033     1.734404     2.156840
 C     0.708233     0.645245     2.813120
 C     0.614637     1.231679     4.083771
 H     1.101412     2.194467     4.265251
 C     0.085585    -0.588758     2.607080
 H     0.124636    -1.055846     1.619754
 C    -0.093478     0.614223     5.110441
 H    -0.156702     1.093484     6.090645
 C    -0.624500    -1.212218     3.634013
 H    -1.113049    -2.168913     3.440089
 C    -0.721039    -0.612032     4.886400
 H    -1.281224    -1.099388     5.687870
 H     3.622925    -0.453048     1.535133
 H     2.364972    -1.616581     1.112607
 C     3.861498    -1.362363    -0.432572
 H     3.261956    -1.421291    -1.357038
 H     4.678559    -0.653495    -0.652783
 C     4.445720    -2.734696    -0.131691
 H     3.616050    -3.439026     0.057762
 H     5.030572    -2.692882     0.805534
 C     5.318068    -3.278523    -1.253850
 H     4.722632    -3.312140    -2.183269
 H     6.141516    -2.569020    -1.451311
 C     5.888152    -4.656858    -0.961271
 H     6.510391    -5.024966    -1.791102
 H     5.084699    -5.392585    -0.796129
 H     6.514747    -4.646470    -0.054686
 H     3.311631     1.277658    -1.553130
 H     2.329848     2.589851    -0.938896
 C     4.172345     2.259552     0.178374
 H     3.834413     2.848557     1.047874
 H     4.739654     1.407701     0.592913
 C     5.112706     3.117378    -0.658818
 H     4.548020     3.964526    -1.088786
 H     5.467889     2.527913    -1.523647
 C     6.309727     3.647684     0.117822
 H     5.949500     4.236732     0.980040
 H     6.865054     2.796516     0.550627
 C     7.248601     4.495786    -0.724766
 H     8.102850     4.864074    -0.136754
 H     6.728444     5.373274    -1.141517
 H     7.652238     3.920866    -1.573739
