  80
scf done:    -1994.668018
 C    -1.202236    -3.258248    -0.149593
 H    -1.608649    -3.667634     0.781385
 H    -1.933726    -3.242404    -0.964316
 C     0.179741    -3.499658    -0.464497
 H     0.785739    -4.071481     0.247237
 H     0.462791    -3.674088    -1.506492
 H    -0.442374    -1.265993    -1.548302
Ir    -0.085312    -1.424631     0.047616
 C    -2.743505     0.375246    -1.224985
 C    -3.247580    -0.576783     1.483069
 C    -1.570400     1.799343     1.066733
 C     2.854470     0.231409     1.027984
 C     3.112680    -1.792643    -1.146569
 C     2.083038     0.987851    -1.728635
 P     1.990186    -0.432834    -0.508300
 P    -1.860643     0.082818     0.394027
 C     0.405241    -1.667755     1.875525
 O     0.747671    -1.816292     2.966188
 H    -2.818555    -0.634261    -1.654106
 H    -2.020706     0.915454    -1.854012
 C    -4.077415     1.052168    -1.213959
 C    -4.194388     2.447308    -1.143542
 H    -3.292766     3.064254    -1.140282
 C    -5.254291     0.292446    -1.251794
 H    -5.183969    -0.795924    -1.330781
 C    -5.443894     3.059098    -1.074411
 H    -5.511018     4.148211    -1.015290
 C    -6.505320     0.900621    -1.183081
 H    -7.408888     0.286648    -1.208692
 C    -6.605423     2.287593    -1.084865
 H    -7.585426     2.766917    -1.028262
 H    -3.790584    -1.226163     0.772808
 C    -2.751068    -1.463829     2.619408
 H    -3.612299    -1.884000     3.163337
 H    -2.141628    -2.295088     2.247112
 H    -2.144817    -0.904306     3.347539
 C    -4.223022     0.470216     2.018798
 H    -4.610267     1.145505     1.246190
 H    -5.088164    -0.037663     2.474549
 H    -3.759330     1.081240     2.808160
 H    -2.557804     2.283950     1.142526
 C    -0.943395     1.714777     2.453769
 H    -0.733275     2.724243     2.842263
 H    -1.590732     1.206849     3.181515
 H     0.008420     1.161793     2.417377
 C    -0.686088     2.613166     0.137001
 H    -1.115683     2.746156    -0.866134
 H    -0.504843     3.615200     0.558134
 H     0.284684     2.114648     0.012562
 H     3.312062    -0.647676     1.507246
 H     2.017670     0.525428     1.676103
 C     3.818016     1.377003     0.937599
 C     3.330391     2.691342     0.888439
 H     2.253046     2.865124     0.952638
 C     5.206500     1.193804     0.918463
 H     5.618391     0.186086     0.993677
 C     4.193124     3.777605     0.769155
 H     3.785595     4.790607     0.726127
 C     6.073960     2.278170     0.805277
 H     7.153093     2.106844     0.790516
 C     5.571283     3.575046     0.716067
 H     6.250959     4.425097     0.622386
 H     2.801990    -2.618140    -0.484738
 C     2.704338    -2.182483    -2.564857
 H     3.119406    -3.171175    -2.817450
 H     1.611070    -2.236699    -2.666294
 H     3.084801    -1.468249    -3.309983
 C     4.620842    -1.633051    -1.008850
 H     4.927179    -1.540207     0.041661
 H     5.117770    -2.533257    -1.406772
 H     5.016797    -0.768204    -1.557292
 H     1.830033     1.846010    -1.085094
 C     3.453559     1.279826    -2.333971
 H     3.402187     2.221471    -2.904252
 H     4.238129     1.399141    -1.576278
 H     3.764223     0.494029    -3.036998
 C     1.013020     0.902191    -2.809577
 H     0.022073     0.717121    -2.376943
 H     0.985054     1.844126    -3.380992
 H     1.213754     0.086907    -3.519790
