  88
scf done:    -2147.975050
 C     1.275180    -0.290842     3.317161
 H     1.161287     0.512318     4.052357
 H     0.805305    -1.226292     3.631021
 C     2.473111    -0.344834     2.527110
 H     3.246107     0.413043     2.690017
 H     2.880004    -1.320579     2.246704
 H     0.607651    -1.320961     1.048995
Ir     0.811853     0.286740     1.283034
 C    -2.453103     1.783188     1.475048
 O    -2.018306    -0.129169    -0.408734
 O    -2.334046    -0.716754     2.064001
 C     0.558998     1.410900    -2.128344
 O     2.953739     1.155660    -1.204808
 O     1.613112    -0.939237    -1.823682
 P     1.505231     0.431320    -0.927435
 P    -1.467368     0.290480     1.096370
 C     1.111508     2.140328     1.676997
 O     1.311564     3.236895     1.955599
 H    -3.515500     1.494246     1.400124
 H    -2.268587     2.001447     2.539852
 C    -2.142730     2.989612     0.600568
 H    -2.105812     2.676845    -0.455756
 H    -1.136061     3.364564     0.838472
 C    -3.153305     4.113267     0.765807
 H    -4.166412     3.786235     0.479923
 H    -3.201451     4.457684     1.810944
 H    -2.892735     4.979929     0.139669
 C    -3.391703    -0.399188    -0.673049
 H    -3.423815    -1.372573    -1.190707
 H    -3.941746    -0.524525     0.273348
 C    -4.037105     0.659390    -1.543453
 H    -5.100521     0.384867    -1.662283
 H    -4.033684     1.627390    -1.014410
 C    -3.391744     0.816958    -2.912115
 H    -3.446652    -0.145325    -3.451234
 H    -2.317827     1.020553    -2.778885
 C    -4.020677     1.919229    -3.747123
 H    -5.091938     1.730796    -3.923986
 H    -3.939075     2.895933    -3.242618
 H    -3.531858     2.012860    -4.728431
 C    -1.843782    -1.873039     2.725865
 H    -0.794522    -2.050268     2.439219
 H    -1.866385    -1.664593     3.807886
 C    -2.701310    -3.077245     2.397225
 H    -2.474882    -3.869698     3.132107
 H    -3.760575    -2.807384     2.553419
 C    -2.491736    -3.608300     0.987219
 H    -1.451769    -3.963951     0.891692
 H    -2.580878    -2.774882     0.273932
 C    -3.454331    -4.717541     0.600643
 H    -3.368650    -5.581278     1.279728
 H    -4.499880    -4.371322     0.642047
 H    -3.264031    -5.077698    -0.421957
 H     0.951539     1.145222    -3.123661
 H    -0.466948     1.016672    -2.054422
 C     0.606343     2.912588    -1.894968
 H     1.645298     3.255407    -2.018477
 H     0.338241     3.131631    -0.849197
 C    -0.318008     3.680751    -2.826378
 H    -0.068116     3.493166    -3.882830
 H    -1.369866     3.385519    -2.682429
 H    -0.250769     4.765822    -2.654529
 C     4.071110     0.998021    -0.348292
 H     4.805978     1.743084    -0.691992
 H     3.782449     1.252480     0.684952
 C     4.662186    -0.396955    -0.396653
 H     5.540912    -0.414590     0.272433
 H     3.936890    -1.102825     0.045540
 C     5.051714    -0.860810    -1.792539
 H     5.784592    -0.153357    -2.219599
 H     4.162145    -0.804986    -2.440158
 C     5.622986    -2.269130    -1.812212
 H     6.532414    -2.346056    -1.194196
 H     4.897455    -2.998142    -1.415725
 H     5.886773    -2.586291    -2.832624
 C     1.554743    -2.265248    -1.332446
 H     2.303733    -2.838893    -1.903801
 H     1.839510    -2.291593    -0.267357
 C     0.167042    -2.839937    -1.517300
 H     0.153755    -3.859722    -1.093146
 H    -0.531490    -2.235767    -0.915227
 C    -0.300316    -2.867969    -2.964854
 H     0.395497    -3.482231    -3.564073
 H    -0.230729    -1.847037    -3.374687
 C    -1.717195    -3.393996    -3.122771
 H    -1.813582    -4.419656    -2.730487
 H    -2.434935    -2.765598    -2.571745
 H    -2.032243    -3.409954    -4.177242
