  88
scf done:    -2696.083997
 C     1.718514    -3.681313    -1.212736
 H     2.419983    -3.715692    -2.053274
 H     2.137275    -4.082065    -0.284263
 C     0.314183    -3.858755    -1.474323
 H    -0.015909    -4.020689    -2.505712
 H    -0.292814    -4.396656    -0.738122
 H     0.439498    -2.345224     0.590564
Ir     0.687265    -1.805956    -0.952589
 C     2.033015     0.321330     1.674758
 C     3.887514    -1.391472     0.255350
 C     2.944052     1.042716    -0.935758
 C    -1.910127     0.426508    -1.840434
 C    -2.761837    -2.157375    -0.690823
 C    -1.612204    -0.037299     1.064861
 P    -1.420092    -0.850406    -0.607192
 P     2.305721    -0.428056     0.012879
 C     0.934221    -1.225611    -2.744196
 O     1.072049    -0.854148    -3.828189
 H     2.955156     0.853288     1.967686
 H     1.262023     1.097897     1.535504
 C     1.605843    -0.651345     2.764500
 H     2.400099    -1.398512     2.931060
 H     0.739205    -1.231646     2.411291
 C     1.275964     0.051363     4.071698
 H     2.138573     0.621291     4.452939
 H     0.444140     0.762185     3.939685
 H     0.978943    -0.666988     4.850612
 H     3.599553    -2.239667     0.894859
 H     4.102969    -1.820453    -0.734829
 C     5.067841    -0.653217     0.804160
 C     5.998507    -0.049063    -0.053350
 H     5.878186    -0.154669    -1.134762
 C     5.269261    -0.519268     2.185133
 H     4.575305    -0.998797     2.879585
 C     7.080231     0.675670     0.439291
 H     7.807539     1.143229    -0.226818
 C     6.344844     0.201634     2.696977
 H     6.506129     0.303179     3.771700
 C     7.237300     0.796771     1.814269
 F     8.268286     1.488882     2.295546
 H     3.853933     1.396259    -0.426111
 H     3.246263     0.648102    -1.918315
 C     1.972339     2.172068    -1.098559
 C     1.143217     2.261953    -2.223381
 H     1.206354     1.499897    -3.002086
 C     1.881460     3.184115    -0.131291
 H     2.538313     3.155102     0.741466
 C     0.238399     3.310678    -2.373991
 H    -0.411960     3.380393    -3.247441
 C     0.979300     4.236755    -0.262641
 H     0.903159     5.022526     0.490977
 C     0.159473     4.279279    -1.383375
 F    -0.733448     5.265508    -1.501571
 H    -1.281155     1.294386    -1.589905
 H    -1.513416     0.055469    -2.800142
 C    -3.361745     0.857362    -2.006970
 H    -3.828687     1.038618    -1.028060
 H    -3.932022     0.039500    -2.477809
 C    -3.477242     2.112263    -2.859983
 H    -2.974116     2.962491    -2.372919
 H    -3.014903     1.970152    -3.850595
 H    -4.528564     2.395999    -3.018744
 H    -3.066211    -2.191739    -1.748312
 H    -2.218720    -3.092359    -0.497811
 C    -3.947284    -2.060529     0.220426
 C    -3.863702    -2.564875     1.526806
 H    -2.937170    -3.042211     1.858004
 C    -5.163595    -1.496844    -0.184491
 H    -5.268883    -1.114408    -1.200799
 C    -4.937670    -2.485841     2.410014
 H    -4.874491    -2.879050     3.426193
 C    -6.250574    -1.413192     0.681212
 H    -7.199174    -0.975014     0.365963
 C    -6.121917    -1.903019     1.974959
 F    -7.156680    -1.824499     2.809985
 H    -1.921293    -0.827276     1.763921
 H    -0.583273     0.231585     1.329329
 C    -2.491806     1.169374     1.165357
 C    -2.004867     2.413313     0.742614
 H    -0.971950     2.497675     0.397506
 C    -3.805362     1.100481     1.643334
 H    -4.202472     0.147910     1.997544
 C    -2.809893     3.548403     0.741575
 H    -2.436276     4.510770     0.387066
 C    -4.623121     2.227610     1.659926
 H    -5.650200     2.179825     2.026290
 C    -4.118896     3.436468     1.195154
 F    -4.903824     4.513620     1.196068
