 108
scf done:    -2461.279905
 C    -1.193059    -2.765130    -1.779748
 H    -1.708135    -3.527251    -1.185091
 H    -1.824957    -2.335972    -2.565291
 C     0.212512    -2.915961    -2.033166
 H     0.729457    -3.785430    -1.613290
 H     0.615232    -2.596800    -2.998720
 H    -0.223965    -0.401556    -2.019292
Ir    -0.102091    -1.292419    -0.644293
 C    -2.706715     0.739603    -1.532777
 C    -3.453548    -1.165288     0.538638
 C    -2.032753     1.292972     1.258647
 C     2.029988     0.478626     1.522466
 C     3.480937    -0.858153    -0.639946
 C     1.787756     1.569831    -1.261285
 P     1.847820    -0.021895    -0.288802
 P    -2.020546    -0.079880     0.001363
 C     0.237807    -2.316176     0.927505
 O     0.551323    -2.878345     1.886106
 H    -2.603198    -0.038787    -2.301781
 H    -1.975151     1.518631    -1.795206
 C    -4.104711     1.269327    -1.494338
 C    -4.403253     2.529645    -0.958143
 H    -3.592180     3.171879    -0.606896
 C    -5.165772     0.486462    -1.969457
 H    -4.950654    -0.488646    -2.415076
 C    -5.720211     2.972871    -0.859939
 H    -5.929977     3.956462    -0.432482
 C    -6.483753     0.925589    -1.871800
 H    -7.294848     0.293551    -2.241542
 C    -6.767768     2.167831    -1.306139
 H    -7.800940     2.513197    -1.224862
 H    -3.828012    -1.530938    -0.436658
 C    -4.613153    -0.456944     1.249449
 H    -4.936465     0.438358     0.703220
 H    -4.275059    -0.116342     2.243261
 C    -5.796913    -1.401477     1.435865
 H    -6.616247    -0.874460     1.951489
 H    -6.188549    -1.683836     0.441800
 C    -5.397136    -2.654882     2.203636
 H    -6.251330    -3.346073     2.290772
 H    -5.119964    -2.371905     3.235581
 C    -4.212888    -3.349000     1.541826
 H    -4.526650    -3.742985     0.557788
 H    -3.893241    -4.220599     2.135802
 C    -3.034565    -2.402157     1.336366
 H    -2.630441    -2.097171     2.317692
 H    -2.219336    -2.920275     0.815730
 H    -3.076690     1.645779     1.330849
 C    -1.158102     2.473141     0.840746
 H    -1.486504     2.885529    -0.125832
 H    -0.132675     2.109075     0.677672
 C    -1.144086     3.575729     1.894447
 H    -0.479411     4.393870     1.570944
 H    -2.156408     4.011686     1.976376
 C    -0.715479     3.043853     3.256922
 H    -0.754210     3.845159     4.012295
 H     0.339656     2.718831     3.208065
 C    -1.582807     1.865950     3.683470
 H    -2.615938     2.219521     3.853647
 H    -1.232206     1.457660     4.645058
 C    -1.600373     0.764592     2.628256
 H    -0.596192     0.319482     2.533527
 H    -2.262823    -0.051605     2.952492
 H     1.430541    -0.277719     2.046268
 H     1.483954     1.425179     1.629500
 C     3.373417     0.561492     2.180681
 C     4.039871     1.779289     2.367956
 H     3.568182     2.707573     2.038422
 C     3.989783    -0.607414     2.649272
 H     3.462872    -1.561650     2.558207
 C     5.300693     1.823485     2.958593
 H     5.803255     2.784858     3.090175
 C     5.253104    -0.567747     3.233951
 H     5.716774    -1.493110     3.584389
 C     5.919538     0.648000     3.381465
 H     6.911015     0.681021     3.838882
 H     3.585518    -1.503039     0.253181
 C     4.722874     0.035813    -0.706998
 H     4.778707     0.711910     0.155250
 H     4.663471     0.670872    -1.607053
 C     5.993559    -0.806934    -0.781521
 H     6.875279    -0.147999    -0.840663
 H     6.096195    -1.376470     0.159624
 C     5.961660    -1.769389    -1.962163
 H     6.867458    -2.397540    -1.974023
 H     5.974591    -1.187909    -2.902272
 C     4.708331    -2.636093    -1.929820
 H     4.753206    -3.306280    -1.051859
 H     4.667590    -3.290543    -2.815820
 C     3.437127    -1.797438    -1.845767
 H     3.323215    -1.209909    -2.772699
 H     2.548782    -2.436487    -1.776238
 H     0.714671     1.813903    -1.181069
 C     2.054491     1.335650    -2.750445
 H     1.461284     0.476919    -3.100714
 H     3.115929     1.080153    -2.904855
 C     1.722567     2.583529    -3.561545
 H     1.940327     2.408975    -4.627644
 H     0.636685     2.778600    -3.494211
 C     2.488344     3.798578    -3.051418
 H     2.213786     4.699036    -3.624523
 H     3.569384     3.641136    -3.219427
 C     2.242086     4.021257    -1.563996
 H     1.179760     4.285360    -1.408639
 H     2.831088     4.878052    -1.198024
 C     2.564973     2.776678    -0.739224
 H     3.648702     2.580561    -0.770031
 H     2.310824     2.968514     0.314033
