  92
scf done:    -3594.698601
 C    -0.173733     2.966452     3.073639
 H    -0.754745     3.850092     2.787980
 H    -0.608358     2.414835     3.913302
 C     1.261074     3.005383     2.933557
 H     1.729109     3.919086     2.552226
 H     1.878332     2.478010     3.667036
 H     0.542142     0.559163     2.602124
Ir     0.415790     1.707386     1.434837
 O    -0.747744    -1.102324     0.260920
 C    -2.465677    -0.111350     2.190608
 C    -2.425425     0.895437    -0.591361
 O     1.962806    -0.199229    -1.047536
 C     3.707954     1.433953     0.254668
 C     2.537211    -1.029631     1.421424
 P     2.133782     0.500820     0.476121
 P    -1.336694     0.379947     0.800371
 C     0.247553     3.169265     0.197765
 O     0.167078     4.087787    -0.485587
 C    -1.401451    -2.279567     0.061149
 C    -0.985462    -3.384754     0.807671
 H    -0.175205    -3.261091     1.528714
 C    -2.406812    -2.430739    -0.897593
 H    -2.703015    -1.585920    -1.517182
 C    -1.610297    -4.616988     0.648119
 H    -1.299627    -5.479662     1.239562
 C    -3.043988    -3.657162    -1.050064
 H    -3.851734    -3.774136    -1.773819
 C    -2.655196    -4.741609    -0.265818
Cl    -3.483254    -6.255695    -0.423359
 H    -2.667940     0.841288     2.706056
 H    -1.813589    -0.683412     2.868452
 C    -3.733650    -0.851218     1.882686
 C    -3.847146    -2.221248     2.147117
 H    -3.009940    -2.748702     2.608530
 C    -4.832456    -0.191100     1.314676
 H    -4.785686     0.886920     1.135933
 C    -4.999311    -2.924870     1.808430
 H    -5.053972    -3.998743     2.002049
 C    -5.988638    -0.892084     0.977422
 H    -6.831751    -0.359343     0.531006
 C    -6.071755    -2.263900     1.211390
 H    -6.974943    -2.814822     0.938967
 H    -3.318192     0.248535    -0.608758
 H    -1.836284     0.665509    -1.492426
 C    -2.823808     2.345883    -0.611113
 C    -2.991452     2.986683    -1.845264
 H    -2.830739     2.425683    -2.769026
 C    -3.041639     3.087575     0.556246
 H    -2.895087     2.628804     1.535666
 C    -3.356847     4.328284    -1.910712
 H    -3.476031     4.807538    -2.885423
 C    -3.405006     4.431793     0.492983
 H    -3.557515     4.992578     1.418149
 C    -3.560799     5.058438    -0.740663
 H    -3.837602     6.114012    -0.790830
 C     1.085336     0.176064    -2.005482
 C     0.334758    -0.820087    -2.637584
 H     0.461802    -1.856753    -2.324731
 C     0.940198     1.506331    -2.403471
 H     1.549133     2.283488    -1.942618
 C    -0.573776    -0.486322    -3.634878
 H    -1.169882    -1.258665    -4.123732
 C     0.021312     1.849615    -3.391410
 H    -0.109323     2.892507    -3.682762
 C    -0.738772     0.851991    -3.995991
Cl    -1.919567     1.278401    -5.195116
 H     3.840192     1.958983     1.213829
 H     3.451540     2.219722    -0.476780
 C     4.959091     0.705447    -0.140265
 C     5.052898     0.006546    -1.351302
 H     4.191521    -0.029336    -2.019613
 C     6.071790     0.724834     0.708059
 H     6.015559     1.273587     1.652677
 C     6.221577    -0.667452    -1.690089
 H     6.270661    -1.220904    -2.630633
 C     7.246340     0.057233     0.365329
 H     8.104698     0.087070     1.041052
 C     7.322972    -0.645732    -0.834447
 H     8.239431    -1.175710    -1.104446
 H     1.538260    -1.405964     1.686490
 H     2.991873    -0.664808     2.356232
 C     3.360400    -2.102887     0.775922
 C     4.687618    -2.325429     1.154879
 H     5.139192    -1.697943     1.926177
 C     2.797610    -2.928804    -0.205640
 H     1.755316    -2.778958    -0.492282
 C     5.445524    -3.323538     0.548369
 H     6.484653    -3.471046     0.851098
 C     3.552691    -3.927882    -0.813135
 H     3.097210    -4.560628    -1.579001
 C     4.882879    -4.124582    -0.443366
 H     5.477050    -4.906628    -0.922155
