 106
scf done:    -2983.156943
 C     0.951362    -3.502789    -0.837576
 H     1.454009    -3.693348    -1.792486
 H     1.539561    -3.834430     0.024427
 C    -0.484015    -3.603513    -0.791840
 H    -1.012788    -3.864003    -1.715364
 H    -0.971075    -3.993787     0.106271
 H     0.168973    -1.940674     1.002021
Ir     0.088763    -1.545728    -0.586802
 C     2.607539    -0.655348     1.586073
 C     3.321979    -0.194977    -1.216619
 C     1.533365     1.649680     0.097859
 C    -1.859567     1.400490    -0.602552
 C    -3.423664    -1.025191    -0.362952
 C    -1.850779    -0.121960     1.923098
 P    -1.792316    -0.327102     0.105821
 P     1.892284    -0.140842    -0.061779
 C    -0.063906    -1.069617    -2.431665
 O    -0.194698    -0.738997    -3.529212
 H     1.865874    -0.326883     2.330507
 H     2.499937    -1.747141     1.541522
 C     4.003901    -0.262474     1.966174
 C     4.238441     0.897883     2.713750
 H     3.391274     1.513226     3.020235
 C     5.103427    -1.070537     1.602726
 C     4.923974    -2.380201     0.890546
 H     4.439954    -2.257178    -0.088086
 H     4.295420    -3.070810     1.476654
 H     5.893337    -2.870247     0.726814
 C     5.523060     1.291911     3.072437
 H     5.671382     2.202413     3.658254
 C     6.391661    -0.653034     1.959401
 H     7.241962    -1.277359     1.671315
 C     6.611909     0.516780     2.680805
 H     7.629322     0.811321     2.949936
 C     3.364937    -1.212897    -2.168744
 H     2.527202    -1.911877    -2.197973
 C     4.387273     0.730177    -1.170126
 O     4.286691     1.729143    -0.281036
 C     5.325416     2.655719    -0.145432
 H     6.267850     2.165945     0.150955
 H     5.020103     3.343704     0.652362
 H     5.483259     3.228727    -1.076127
 C     4.442122    -1.355656    -3.042094
 H     4.452248    -2.167419    -3.771989
 C     5.473907     0.587385    -2.040731
 H     6.306125     1.290026    -1.998955
 C     5.498449    -0.454445    -2.966268
 H     6.356121    -0.551436    -3.636817
 C     1.347733     2.290855     1.319382
 H     1.478878     1.731855     2.245408
 C     1.294893     2.385338    -1.084133
 O     1.419942     1.695146    -2.230480
 C     1.142469     2.309409    -3.457816
 H     0.107946     2.693159    -3.493826
 H     1.259156     1.532421    -4.222352
 H     1.842626     3.137319    -3.663729
 C     0.956900     3.630619     1.390442
 H     0.814348     4.105782     2.363450
 C     0.920084     3.728787    -1.023341
 H     0.737537     4.293213    -1.937803
 C     0.751140     4.346870     0.216945
 H     0.446429     5.395227     0.255574
 H    -1.074401     1.955831    -0.072990
 H    -1.468997     1.252740    -1.618988
 C    -3.135511     2.187081    -0.624902
 C    -3.372052     3.130556     0.386531
 H    -2.617650     3.268757     1.163082
 C    -4.090944     2.040249    -1.651966
 C    -3.923345     1.103423    -2.815172
 H    -4.556440     0.210591    -2.695952
 H    -2.893891     0.745984    -2.941088
 H    -4.226462     1.597632    -3.750809
 C    -4.530885     3.894899     0.423130
 H    -4.681454     4.622474     1.224417
 C    -5.257650     2.817763    -1.597611
 H    -5.997301     2.703073    -2.395441
 C    -5.489966     3.730696    -0.575765
 H    -6.407863     4.323857    -0.567941
 C    -3.471631    -1.977021    -1.378816
 H    -2.523966    -2.315410    -1.801252
 C    -4.633388    -0.597892     0.224472
 O    -4.536423     0.285912     1.228244
 C    -5.692425     0.826783     1.800791
 H    -6.301746     1.358678     1.051272
 H    -5.352713     1.546961     2.555071
 H    -6.304749     0.050389     2.292438
 C    -4.682966    -2.486479    -1.845905
 H    -4.694153    -3.226201    -2.648762
 C    -5.852224    -1.101130    -0.243631
 H    -6.791355    -0.763965     0.195170
 C    -5.870496    -2.037558    -1.277224
 H    -6.830947    -2.420178    -1.632014
 C    -1.475314     1.053053     2.565946
 H    -1.208152     1.927280     1.975272
 C    -2.169282    -1.247248     2.712814
 O    -2.519625    -2.354221     2.037076
 C    -2.791454    -3.539243     2.725771
 H    -1.919581    -3.879102     3.311397
 H    -3.026521    -4.292789     1.963666
 H    -3.658399    -3.430559     3.401220
 C    -1.408848     1.134747     3.958867
 H    -1.108022     2.070104     4.435954
 C    -2.108806    -1.172483     4.106052
 H    -2.354333    -2.042135     4.716021
 C    -1.728055     0.019916     4.724125
 H    -1.681794     0.066357     5.814866
