  84
scf done:    -5576.232435
 C     1.037527    -4.215825     1.580426
 H     1.741223    -4.820385     1.000896
 H     1.385046    -3.984018     2.590492
 C    -0.365907    -4.333624     1.329234
 H    -0.715542    -5.030908     0.562045
 H    -1.076223    -4.186436     2.147054
 H    -0.003440    -1.899016     2.032467
Ir     0.343768    -2.450067     0.533695
 O     2.291322     0.069556     1.775956
 O     3.555543    -1.683971     0.558048
 O     2.119781     0.007593    -0.779200
 O    -1.421806     0.360464     0.410009
 O    -1.837989    -1.161897    -1.620801
 O    -2.891258    -1.667770     0.661543
 P    -1.459374    -1.226312    -0.018494
 P     2.073588    -1.004322     0.533659
 C     0.699156    -3.180174    -1.229209
 O     0.894880    -3.593604    -2.276185
 C     1.264241     0.856083     2.244506
 C     0.582418     0.465622     3.395632
 H     0.870254    -0.459024     3.897237
 C     0.929801     2.039701     1.590644
 H     1.462731     2.335075     0.686673
 C    -0.458840     1.250471     3.880269
 H    -1.004907     0.956937     4.778364
 C    -0.109160     2.828377     2.073608
 H    -0.394010     3.746135     1.557695
 C    -0.809564     2.419619     3.205398
Cl    -2.143186     3.371069     3.771387
 C     4.803433    -1.105571     0.644850
 C     5.217752    -0.451355     1.802725
 H     4.544851    -0.389742     2.657207
 C     5.657321    -1.224629    -0.449728
 H     5.313822    -1.758608    -1.336554
 C     6.473913     0.147936     1.837033
 H     6.809469     0.680112     2.728502
 C     6.909967    -0.624419    -0.418349
 H     7.574978    -0.676633    -1.281446
 C     7.306418     0.075196     0.721596
Cl     8.846628     0.865798     0.747690
 C     3.203570     0.683206    -1.289471
 C     3.554795     0.418465    -2.611666
 H     2.961149    -0.298945    -3.181387
 C     3.931151     1.604826    -0.535257
 H     3.660096     1.801056     0.501493
 C     4.664812     1.041290    -3.173304
 H     4.960408     0.831574    -4.202433
 C     5.048037     2.219582    -1.090882
 H     5.649489     2.912107    -0.500543
 C     5.417426     1.926807    -2.402985
Cl     6.836766     2.654226    -3.074340
 C    -1.680610     1.461048    -0.358624
 C    -2.768947     2.270713    -0.039988
 H    -3.414549     2.000987     0.796427
 C    -0.821245     1.796745    -1.405010
 H     0.036958     1.157113    -1.619303
 C    -3.012196     3.419110    -0.787551
 H    -3.860187     4.063372    -0.550737
 C    -1.067913     2.941681    -2.156836
 H    -0.408905     3.216735    -2.981767
 C    -2.165808     3.746119    -1.847542
Cl    -2.475272     5.169419    -2.784426
 C    -3.095999    -1.164260    -2.173283
 C    -3.633745     0.012054    -2.692030
 H    -3.059771     0.937378    -2.643332
 C    -3.809177    -2.360817    -2.243433
 H    -3.366937    -3.272255    -1.838269
 C    -4.903913    -0.002958    -3.260982
 H    -5.339199     0.912361    -3.664546
 C    -5.079880    -2.378184    -2.809747
 H    -5.652644    -3.305155    -2.863427
 C    -5.625775    -1.195090    -3.309402
Cl    -7.212884    -1.209585    -4.000807
 C    -3.813000    -0.818082     1.228005
 C    -5.020912    -0.571543     0.579664
 H    -5.228031    -1.046189    -0.379517
 C    -3.535943    -0.226721     2.460087
 H    -2.580362    -0.427630     2.946098
 C    -5.950470     0.288575     1.158697
 H    -6.897808     0.495507     0.658761
 C    -4.459412     0.637373     3.038315
 H    -4.241915     1.129087     3.986859
 C    -5.661662     0.897075     2.379398
Cl    -6.805180     1.989341     3.085744
