  90
scf done:    -2374.052704
 C    -1.235819    -3.311255    -0.680619
 H    -1.708765    -3.798307     0.178704
 H    -1.896901    -3.238578    -1.550635
 C     0.177116    -3.496146    -0.894322
 H     0.746423    -4.110171    -0.189353
 H     0.560703    -3.549775    -1.917325
 H    -0.401462    -1.191460    -1.836953
Ir    -0.185136    -1.480546    -0.234750
 C    -3.190540     0.021206    -1.287699
 O    -2.481591     0.719674     1.166313
 O    -1.014242     1.629999    -0.737068
 C     1.953012     1.093550     0.825952
 O     3.086318    -1.266548     0.030182
 O     2.306174     0.378008    -1.729643
 P     1.802526    -0.330871    -0.340076
 P    -1.702623     0.227625    -0.188308
 C     0.116099    -1.944550     1.601171
 O     0.344235    -2.241029     2.688089
 H    -2.989890     0.621990    -2.185664
 H    -3.142764    -1.031127    -1.601037
 C    -4.522737     0.355701    -0.687375
 C    -5.121682     1.594437    -0.931819
 H    -4.625032     2.304254    -1.598671
 C    -5.175933    -0.572735     0.148923
 C    -4.590390    -1.932127     0.394841
 H    -3.527642    -1.882987     0.673402
 H    -4.645976    -2.558924    -0.511270
 H    -5.129325    -2.457994     1.194838
 C    -6.338713     1.939882    -0.348506
 H    -6.786778     2.914826    -0.554395
 C    -6.395085    -0.211661     0.728633
 H    -6.901475    -0.929069     1.380549
 C    -6.976018     1.033223     0.492947
 H    -7.929268     1.289137     0.961591
 C    -1.934829     0.602180     2.481508
 H    -0.848238     0.418576     2.398144
 C    -2.591591    -0.568667     3.182995
 H    -2.406649    -1.503330     2.636855
 H    -3.679206    -0.409234     3.239419
 H    -2.194034    -0.684299     4.201984
 C    -2.169319     1.916752     3.196151
 H    -1.670257     2.745111     2.674701
 H    -3.246908     2.136232     3.237969
 H    -1.780919     1.870984     4.224277
 C    -1.681531     2.896817    -0.768588
 H    -2.651559     2.799237    -0.251615
 C    -1.898036     3.315601    -2.210847
 H    -2.513046     2.588825    -2.759620
 H    -0.931906     3.402198    -2.730403
 H    -2.404150     4.291610    -2.257428
 C    -0.820371     3.892366    -0.016378
 H    -0.649615     3.559680     1.016438
 H     0.159756     3.999865    -0.506848
 H    -1.300968     4.881645     0.013020
 H     1.270091     1.840047     0.392251
 H     1.493732     0.752740     1.764321
 C     3.331502     1.628982     1.036266
 C     3.876836     2.536944     0.120941
 H     3.267697     2.860232    -0.725552
 C     4.110284     1.196124     2.129702
 C     3.564301     0.218762     3.131019
 H     3.224563    -0.707177     2.641912
 H     2.699894     0.634424     3.675197
 H     4.325674    -0.049029     3.876514
 C     5.176583     3.013365     0.263413
 H     5.583705     3.718277    -0.465362
 C     5.411771     1.692065     2.262527
 H     6.018134     1.360533     3.110220
 C     5.949772     2.587218     1.340945
 H     6.971180     2.953803     1.467981
 C     4.398251    -1.192224    -0.553347
 H     4.618952    -0.140995    -0.800330
 C     4.430059    -2.033534    -1.814479
 H     3.706398    -1.659784    -2.548934
 H     4.180826    -3.079451    -1.578330
 H     5.432093    -2.006631    -2.269178
 C     5.378141    -1.686523     0.488832
 H     5.368029    -1.042202     1.376649
 H     5.124236    -2.714005     0.791158
 H     6.398334    -1.685740     0.077164
 C     1.449464     0.688737    -2.834826
 H     0.407003     0.667876    -2.481655
 C     1.628995    -0.351775    -3.919594
 H     1.382929    -1.350155    -3.529808
 H     2.666766    -0.358740    -4.287589
 H     0.961629    -0.141601    -4.769173
 C     1.789990     2.093853    -3.285046
 H     1.601870     2.813985    -2.475364
 H     2.850064     2.163960    -3.573556
 H     1.174315     2.381256    -4.150602
