 110
scf done:    -2387.517534
 C     0.413607    -2.797997    -2.253376
 H     0.955772    -2.611550    -3.186648
 H     0.910160    -3.528348    -1.605828
 C    -1.027334    -2.749497    -2.267353
 H    -1.536852    -2.527661    -3.211080
 H    -1.586418    -3.442598    -1.630258
 H    -0.298244    -2.025914     0.089889
Ir    -0.260281    -1.031162    -1.224195
 C     2.434906    -1.417426     0.916984
 C     3.009421     0.175450    -1.515351
 C     1.630735     1.376270     0.712757
 C    -2.771900     1.441125    -1.129400
 C    -3.587745    -1.141824    -0.130246
 C    -1.941981     0.606222     1.510701
 P    -2.111272    -0.042944    -0.210658
 P     1.694976    -0.185181    -0.268605
 C    -0.225447     0.109416    -2.750761
 O    -0.199888     0.823325    -3.655514
 H     1.701100    -1.465190     1.736916
 H     2.355034    -2.377586     0.390476
 C     3.813292    -1.161114     1.443393
 C     3.992581    -0.260272     2.501158
 H     3.111713     0.189516     2.966999
 C     4.946019    -1.783765     0.875639
 C     4.818753    -2.815768    -0.208712
 H     4.316497    -2.423472    -1.105205
 H     4.229199    -3.683534     0.128860
 H     5.807125    -3.184003    -0.515612
 C     5.260898     0.078795     2.963306
 H     5.372094     0.791561     3.783743
 C     6.213830    -1.431983     1.351189
 H     7.092735    -1.906161     0.905653
 C     6.381463    -0.500385     2.373485
 H     7.385270    -0.242175     2.718715
 H     3.301476    -0.809641    -1.914715
 H     2.492183     0.673663    -2.351673
 C     4.226715     0.985429    -1.081344
 H     3.938770     2.044523    -0.964660
 H     4.579986     0.658963    -0.092327
 C     5.385397     0.885689    -2.063362
 H     5.058820     1.218760    -3.065562
 H     5.667350    -0.177208    -2.177388
 C     6.608204     1.681123    -1.628970
 H     6.328207     2.743771    -1.517123
 H     6.910337     1.343973    -0.621483
 C     7.781958     1.558396    -2.586777
 H     8.649747     2.142854    -2.245055
 H     7.516028     1.916313    -3.594542
 H     8.106314     0.509909    -2.687216
 H     1.020190     1.149746     1.601389
 H     2.636294     1.644165     1.073961
 C     1.003806     2.518381    -0.073350
 H     1.689125     2.846053    -0.874350
 H     0.108477     2.135800    -0.592477
 C     0.615305     3.713230     0.785310
 H     1.509235     4.116537     1.294272
 H    -0.054859     3.371960     1.596900
 C    -0.072986     4.822360     0.001768
 H     0.612155     5.192506    -0.780815
 H    -0.937587     4.398812    -0.540080
 C    -0.538200     5.978766     0.871077
 H    -1.025296     6.764967     0.275045
 H     0.305195     6.441064     1.408755
 H    -1.263863     5.640365     1.628837
 H    -1.919162     2.136019    -1.178977
 H    -2.929961     1.086174    -2.157573
 C    -3.981146     2.134201    -0.576440
 C    -3.824270     3.064958     0.460008
 H    -2.817313     3.291955     0.818536
 C    -5.277838     1.884973    -1.076582
 C    -5.512986     0.976486    -2.250120
 H    -5.191043    -0.055899    -2.052262
 H    -4.960021     1.319286    -3.139771
 H    -6.579046     0.947984    -2.513471
 C    -4.913423     3.713482     1.033241
 H    -4.757980     4.433900     1.839767
 C    -6.363409     2.543237    -0.486270
 H    -7.367550     2.349665    -0.873677
 C    -6.195675     3.441760     0.563694
 H    -7.063924     3.939589     1.001729
 H    -4.462180    -0.549697     0.191071
 H    -3.754958    -1.450686    -1.175645
 C    -3.423995    -2.382341     0.736634
 H    -2.430338    -2.825222     0.554078
 H    -3.443914    -2.097448     1.802014
 C    -4.503554    -3.424795     0.481596
 H    -4.467595    -3.727584    -0.580897
 H    -5.500626    -2.970920     0.630776
 C    -4.371926    -4.659720     1.361711
 H    -3.370380    -5.100732     1.213397
 H    -4.408037    -4.353402     2.422429
 C    -5.438985    -5.709040     1.095509
 H    -5.317404    -6.588092     1.746514
 H    -5.400904    -6.060636     0.051851
 H    -6.449445    -5.304407     1.268165
 H    -1.390431     1.554554     1.399796
 H    -2.939713     0.870601     1.899088
 C    -1.187550    -0.294552     2.478038
 H    -1.795608    -1.175592     2.736668
 H    -0.301874    -0.700852     1.963853
 C    -0.762063     0.420235     3.752787
 H    -1.653486     0.788214     4.292289
 H    -0.185038     1.326628     3.488473
 C     0.074852    -0.450079     4.679953
 H    -0.504556    -1.348736     4.955171
 H     0.953641    -0.825314     4.124857
 C     0.536896     0.270599     5.935652
 H     1.139601    -0.384480     6.582599
 H    -0.319486     0.628971     6.529216
 H     1.153053     1.149988     5.686601
