  96
scf done:    -2603.930083
 C    -0.725860    -4.031812    -0.848004
 H    -1.239359    -4.614297    -0.074883
 H    -1.266865    -4.008420    -1.799138
 C     0.717364    -4.028938    -0.867442
 H     1.255919    -4.608281    -0.109538
 H     1.230078    -4.003917    -1.834742
 H    -0.012747    -1.773112    -1.832116
Ir     0.001756    -2.112508    -0.218090
 C    -1.848831     0.653160    -1.402467
 C    -3.440161    -1.641202    -0.330750
 C    -2.023929     0.192080     1.549033
 C     1.883629     0.406396     1.404009
 C     3.435070    -1.645517    -0.125752
 C     1.957811     0.498944    -1.583847
 P     1.839055    -0.669523    -0.129820
 P    -1.848107    -0.685960    -0.097876
 C     0.061331    -2.538865     1.639093
 O     0.128880    -2.747079     2.771043
 H    -1.197188     0.229717    -2.179006
 H    -1.313669     1.501925    -0.951551
 C    -3.137487     1.103787    -2.018186
 C    -3.824345     2.231963    -1.555158
 H    -3.416301     2.809502    -0.725173
 C    -3.671057     0.398791    -3.106811
 H    -3.129461    -0.464903    -3.503605
 C    -5.024721     2.624456    -2.142381
 H    -5.545808     3.505201    -1.759442
 C    -4.872457     0.789130    -3.695038
 H    -5.271632     0.223849    -4.540562
 C    -5.558942     1.901730    -3.208714
 H    -6.501380     2.210087    -3.667329
 H    -3.155474    -2.658109    -0.026647
 H    -3.600477    -1.676000    -1.418560
 C    -4.680116    -1.212614     0.391900
 C    -5.636900    -0.380322    -0.201681
 H    -5.490826    -0.034866    -1.225285
 C    -4.912145    -1.662511     1.700269
 H    -4.194354    -2.342633     2.168530
 C    -6.773693     0.012667     0.500540
 H    -7.502986     0.666360     0.015997
 C    -6.047209    -1.268094     2.406191
 H    -6.205219    -1.629377     3.425199
 C    -6.981164    -0.421156     1.809651
 H    -7.872369    -0.110328     2.359905
 H    -1.000349     0.198965     1.946839
 H    -2.604515    -0.491802     2.185767
 C    -2.585171     1.579692     1.594320
 C    -3.940533     1.824699     1.844733
 H    -4.616521     0.987825     2.021716
 C    -1.737210     2.679889     1.399276
 H    -0.667517     2.512250     1.245565
 C    -4.435653     3.126342     1.869263
 H    -5.498324     3.290893     2.062827
 C    -2.230526     3.982891     1.418527
 H    -1.549642     4.823325     1.263057
 C    -3.587389     4.210921     1.647277
 H    -3.978731     5.230752     1.664509
 H     1.244058    -0.134451     2.115529
 H     1.349004     1.327729     1.128637
 C     3.189585     0.725248     2.063360
 C     3.880886     1.913364     1.800407
 H     3.463342     2.637612     1.100194
 C     3.735343    -0.174411     2.990450
 H     3.188594    -1.090325     3.234535
 C     5.097934     2.179636     2.423008
 H     5.622476     3.111480     2.198463
 C     4.954020     0.089496     3.612566
 H     5.363072    -0.625877     4.329985
 C     5.644538     1.266852     3.324707
 H     6.600233     1.476395     3.810854
 H     3.137416    -2.585100    -0.611963
 H     3.624959    -1.885745     0.931199
 C     4.656840    -1.086034    -0.786990
 C     5.633125    -0.381909    -0.071924
 H     5.517031    -0.238991     1.002667
 C     4.851171    -1.278620    -2.162855
 H     4.117263    -1.857511    -2.731363
 C     6.751689     0.139438    -0.717577
 H     7.496882     0.689326    -0.137678
 C     5.968250    -0.755697    -2.811638
 H     6.097235    -0.916103    -3.884737
 C     6.921327    -0.036442    -2.090662
 H     7.798382     0.374796    -2.595951
 H     0.922256     0.570861    -1.938999
 H     2.514138    -0.054337    -2.354461
 C     2.525316     1.870584    -1.383285
 C     3.873556     2.158461    -1.626733
 H     4.538346     1.369795    -1.979801
 C     1.691560     2.914567    -0.956148
 H     0.626303     2.722056    -0.801474
 C     4.376307     3.441089    -1.421288
 H     5.433421     3.638571    -1.614433
 C     2.192535     4.197558    -0.744970
 H     1.522472     4.993502    -0.410921
 C     3.542716     4.464445    -0.970803
 H     3.939980     5.468936    -0.807421
