  90
scf done:    -4363.253227
 C     1.693288    -3.673496    -0.197381
 H     2.490338    -3.925662    -0.905848
 H     1.965144    -3.897092     0.839601
 C     0.326160    -3.841128    -0.614429
 H     0.134438    -4.204802    -1.629911
 H    -0.421735    -4.174716     0.111345
 H     0.286202    -1.965582     1.083243
Ir     0.770017    -1.742911    -0.461892
 C     3.069744    -0.351524     2.021520
 C     3.861253    -0.035245    -0.614792
 C     1.705617     1.583880     0.256736
 C    -1.417394     0.338155    -2.215732
 C    -2.750202    -1.560898    -0.528217
 C    -1.550326     0.668175     0.767215
 P    -1.231154    -0.535214    -0.578637
 P     2.288275    -0.150756     0.334194
 C     1.244050    -1.551951    -2.307571
 O     1.493647    -1.429151    -3.423570
 H     3.725961    -1.221797     1.860702
 H     3.727962     0.519063     2.168470
 C     2.203255    -0.580755     3.223936
 C     2.088015     0.391583     4.226154
 H     2.646034     1.328181     4.141556
 C     1.524958    -1.791219     3.389660
 H     1.636780    -2.565705     2.628729
 C     1.286219     0.163619     5.340759
 H     1.206538     0.927570     6.117920
 C     0.694029    -2.028898     4.489878
 C    -0.055479    -3.324625     4.595896
 H    -0.749779    -3.445217     3.748515
 H     0.631133    -4.185191     4.571609
 H    -0.639867    -3.381442     5.524582
 C     0.580427    -1.032239     5.465228
 H    -0.057327    -1.201255     6.337098
 C     4.630941     1.135304    -0.626674
 H     4.272047     2.031961    -0.114919
 C     4.345168    -1.166521    -1.279141
 H     3.749949    -2.082559    -1.268069
 C     5.848478     1.182072    -1.297799
 H     6.444640     2.095837    -1.315259
 C     5.565101    -1.136298    -1.948901
 H     5.939543    -2.018248    -2.470735
 C     6.308901     0.042141    -1.957294
Cl     7.820393     0.095088    -2.797405
 C     1.513313     2.143530    -1.015135
 H     1.819781     1.585337    -1.904802
 C     1.321238     2.322512     1.378604
 H     1.441597     1.909222     2.379160
 C     0.934217     3.397464    -1.166046
 H     0.791350     3.833394    -2.156369
 C     0.728554     3.576549     1.241543
 H     0.398364     4.132545     2.120135
 C     0.522991     4.097946    -0.031451
Cl    -0.295855     5.615120    -0.215092
 H    -0.506732     0.946402    -2.311524
 H    -1.303887    -0.496781    -2.926337
 C    -2.632575     1.153022    -2.547508
 C    -3.894377     0.571744    -2.721219
 H    -4.016133    -0.509491    -2.637369
 C    -2.511348     2.540257    -2.692823
 H    -1.527080     2.999243    -2.562232
 C    -4.998656     1.374927    -2.994970
 H    -5.981578     0.914092    -3.119751
 C    -3.609276     3.361832    -2.963712
 C    -3.429734     4.845253    -3.109785
 H    -4.362498     5.387081    -2.897677
 H    -2.649531     5.221867    -2.431537
 H    -3.124888     5.106140    -4.137058
 C    -4.863099     2.757221    -3.105643
 H    -5.740925     3.376346    -3.309753
 C    -2.791750    -2.713862    -1.322063
 H    -1.901354    -3.008075    -1.882694
 C    -3.881773    -1.209948     0.214299
 H    -3.871501    -0.313792     0.837571
 C    -3.943492    -3.488671    -1.397553
 H    -3.978471    -4.384048    -2.020179
 C    -5.036881    -1.986531     0.160643
 H    -5.920616    -1.713961     0.739672
 C    -5.063715    -3.117865    -0.651840
Cl    -6.499553    -4.081726    -0.731242
 C    -2.144265     1.921083     0.579977
 H    -2.450036     2.249479    -0.410853
 C    -1.200123     0.282895     2.069077
 H    -0.722549    -0.684292     2.236836
 C    -2.351282     2.783847     1.653591
 H    -2.782191     3.773118     1.491963
 C    -1.418615     1.126262     3.152198
 H    -1.124620     0.819528     4.156173
 C    -1.977560     2.383724     2.932806
Cl    -2.167088     3.479182     4.262954
