  92
scf done:    -4437.979522
 C     1.045291     0.219308    -4.037816
 H     1.529231     1.120689    -4.426637
 H     1.635236    -0.690285    -4.184643
 C    -0.388773     0.132106    -4.054168
 H    -0.969894     0.967214    -4.457111
 H    -0.861951    -0.841496    -4.210564
 H     0.377459    -1.216829    -2.039441
Ir     0.284149     0.411400    -2.023154
 C     3.168081    -1.241587    -0.767394
 O     3.192097     1.343475    -0.484555
 O     1.492188     0.035795     0.989430
 C    -1.563617     1.368891     0.821442
 O    -2.943683     0.193664    -1.269603
 O    -1.516879    -1.213802     0.361432
 P    -1.437925     0.174868    -0.551044
 P     2.019802     0.156128    -0.594504
 C     0.095966     2.336058    -2.143400
 O    -0.091549     3.461528    -2.244484
 H     4.045613    -1.054218    -0.128944
 H     3.507693    -1.165045    -1.812946
 C     2.555137    -2.604514    -0.476625
 H     2.293179    -2.659388     0.592776
 H     1.606728    -2.719751    -1.029461
 C     3.487145    -3.769935    -0.824776
 H     4.463575    -3.567066    -0.345207
 C     2.952598    -5.079170    -0.256662
 H     2.780235    -5.006966     0.828639
 H     3.659786    -5.904595    -0.431488
 H     1.998646    -5.356820    -0.731485
 C     3.711635    -3.892467    -2.328195
 H     4.389402    -4.728260    -2.559942
 H     4.153486    -2.983948    -2.764973
 H     2.756716    -4.083118    -2.845812
 C     2.846256     2.666726    -0.514170
 C     2.104528     3.233213     0.524082
 H     1.802515     2.614662     1.370925
 C     3.255581     3.445579    -1.594856
 H     3.828414     2.977265    -2.396859
 C     1.760691     4.580286     0.474302
 H     1.176485     5.034915     1.276023
 C     2.920285     4.794484    -1.643499
 H     3.227003     5.415083    -2.486619
 C     2.166942     5.354105    -0.611881
Cl     1.731255     7.027958    -0.679902
 C     2.180086    -0.303178     2.116554
 C     3.505147     0.070423     2.353004
 H     4.048531     0.653439     1.608729
 C     1.470187    -1.015591     3.086857
 H     0.429958    -1.273438     2.881598
 C     4.120616    -0.293830     3.548959
 H     5.155883    -0.009439     3.743785
 C     2.081520    -1.372122     4.282528
 H     1.533696    -1.928188     5.044942
 C     3.411621    -1.014427     4.507228
Cl     4.181600    -1.462534     5.992459
 H    -2.000368     2.277840     0.370751
 H    -0.508243     1.604588     1.022438
 C    -2.279650     0.974775     2.105200
 H    -3.324582     0.706191     1.893213
 H    -1.809422     0.064684     2.512151
 C    -2.263442     2.071282     3.173361
 H    -2.734843     2.970972     2.733997
 C    -3.108086     1.640029     4.366836
 H    -4.138622     1.399700     4.061963
 H    -3.156291     2.429516     5.132473
 H    -2.682285     0.740646     4.842329
 C    -0.849502     2.444491     3.607554
 H    -0.867680     3.196063     4.411485
 H    -0.258615     2.867475     2.780815
 H    -0.307108     1.561777     3.986603
 C    -4.107511     0.247580    -0.548907
 C    -4.764320     1.471012    -0.416198
 H    -4.350570     2.352423    -0.909780
 C    -4.631985    -0.901957     0.043383
 H    -4.120823    -1.857152    -0.084764
 C    -5.923828     1.559122     0.347657
 H    -6.441422     2.511913     0.468836
 C    -5.791721    -0.817636     0.807472
 H    -6.207067    -1.705635     1.286341
 C    -6.424553     0.414894     0.968527
Cl    -7.851974     0.524779     1.943474
 C    -1.330853    -2.477984    -0.107917
 C    -1.661939    -2.858009    -1.411342
 H    -2.083566    -2.127541    -2.103518
 C    -0.811379    -3.416694     0.784591
 H    -0.567720    -3.103458     1.800347
 C    -1.435062    -4.167644    -1.826510
 H    -1.673636    -4.471254    -2.846896
 C    -0.598826    -4.727441     0.375921
 H    -0.185594    -5.464669     1.065507
 C    -0.897941    -5.093961    -0.935715
Cl    -0.581594    -6.714544    -1.464494
