 110
scf done:    -2911.460375
 C    -0.953134    -1.031955    -2.976737
 H    -0.884175    -0.284894    -3.774221
 H    -0.268432    -1.875762    -3.102044
 C    -2.209938    -1.232270    -2.326098
 H    -3.066192    -0.614298    -2.609436
 H    -2.487006    -2.227652    -1.970870
 H    -0.338827    -1.728336    -0.583449
Ir    -0.850644    -0.224032    -0.964685
 O     2.132907    -1.367556    -1.346195
 C     2.357891     1.315527    -1.854015
 C     2.106509     0.351897     0.870454
 O    -0.915028     0.247642     2.498992
 C    -3.369340     0.515626     1.489875
 C    -1.888873    -2.001260     1.923614
 P    -1.754584    -0.330017     1.131092
 P     1.443119     0.065842    -0.831517
 C    -1.564575     1.507783    -1.383939
 O    -2.047237     2.532572    -1.582068
 C     3.433103    -1.711047    -1.598780
 C     4.008032    -2.708232    -0.808905
 H     3.409683    -3.141134    -0.007195
 C     4.145557    -1.185640    -2.677795
 H     3.679636    -0.464398    -3.347085
 C     5.311219    -3.149515    -1.035628
 C     5.930903    -4.192763    -0.152970
 H     5.169950    -4.734964     0.425583
 H     6.506702    -4.925232    -0.738392
 H     6.623276    -3.728043     0.567712
 C     5.450428    -1.619830    -2.907952
 H     6.010272    -1.205752    -3.750154
 C     6.035948    -2.581129    -2.091741
 H     7.059662    -2.911957    -2.285300
 H     3.429653     1.197747    -1.634899
 H     2.200815     0.996581    -2.892911
 C     1.923867     2.739836    -1.664218
 C     2.483149     3.512250    -0.639123
 H     3.234140     3.069494     0.019210
 C     0.982179     3.331675    -2.532290
 C     0.427050     2.588174    -3.712479
 H     0.086923     1.579025    -3.442263
 H     1.192037     2.476875    -4.500061
 H    -0.424381     3.125973    -4.150237
 C     2.115649     4.839822    -0.444504
 H     2.571369     5.417328     0.362827
 C     0.607592     4.660595    -2.309675
 H    -0.133319     5.114192    -2.973093
 C     1.161613     5.414985    -1.278788
 H     0.854009     6.453678    -1.135563
 H     2.042298     1.444579     0.998873
 H     1.328428    -0.060749     1.517814
 C     3.449197    -0.181035     1.262153
 C     4.630177     0.456524     0.867808
 H     4.574195     1.364971     0.263901
 C     3.530972    -1.346112     2.054104
 C     2.294014    -2.091273     2.468977
 H     1.699762    -2.396504     1.591836
 H     1.631269    -1.476336     3.099274
 H     2.551318    -2.996403     3.035915
 C     5.879546    -0.040307     1.227588
 H     6.786156     0.470278     0.895635
 C     4.791781    -1.819425     2.427739
 H     4.855860    -2.719780     3.045252
 C     5.960745    -1.182101     2.018800
 H     6.933787    -1.578062     2.319415
 C    -0.331855     1.462433     2.649310
 C     0.576139     1.580316     3.706227
 H     0.740661     0.706898     4.341957
 C    -0.570405     2.555958     1.812918
 H    -1.257866     2.484741     0.973274
 C     1.273219     2.767759     3.931713
 C     2.293731     2.849039     5.029773
 H     1.962893     2.309632     5.929529
 H     3.245784     2.393956     4.709213
 H     2.502352     3.891066     5.310557
 C     0.110584     3.748712     2.047205
 H    -0.073596     4.597436     1.386265
 C     1.026710     3.859480     3.088081
 H     1.558333     4.800387     3.251415
 H    -3.793041     0.025308     2.380778
 H    -3.077482     1.521413     1.818939
 C    -4.366620     0.590700     0.368221
 C    -4.761453    -0.574998    -0.297581
 H    -4.320794    -1.531742    -0.012925
 C    -4.923175     1.826287    -0.023371
 C    -4.545110     3.117765     0.645048
 H    -3.484164     3.363530     0.479724
 H    -4.712013     3.087260     1.733197
 H    -5.136734     3.950668     0.241412
 C    -5.692940    -0.543666    -1.330397
 H    -5.977608    -1.472097    -1.830494
 C    -5.852286     1.841239    -1.070158
 H    -6.280912     2.799072    -1.377351
 C    -6.240097     0.674523    -1.722761
 H    -6.967710     0.719831    -2.536698
 H    -0.842539    -2.341068     1.946155
 H    -2.185575    -1.804141     2.963128
 C    -2.752242    -3.039221     1.268114
 C    -2.227822    -3.770181     0.193105
 H    -1.207003    -3.559378    -0.132253
 C    -4.064225    -3.318429     1.708090
 C    -4.712215    -2.592603     2.852624
 H    -5.126537    -1.624102     2.526819
 H    -4.013347    -2.392804     3.677813
 H    -5.549288    -3.177722     3.257716
 C    -2.979973    -4.730648    -0.473492
 H    -2.545718    -5.276124    -1.314382
 C    -4.803950    -4.297023     1.030999
 H    -5.820014    -4.513939     1.371822
 C    -4.282630    -4.991814    -0.055181
 H    -4.888389    -5.745302    -0.564128
