  88
scf done:    -2299.304906
 C     1.356209    -3.345435     0.730857
 H     1.951245    -3.886490    -0.013217
 H     1.884228    -3.200095     1.678166
 C    -0.067377    -3.551241     0.742317
 H    -0.496451    -4.232581    -0.000649
 H    -0.604819    -3.560384     1.695273
 H     0.301755    -1.211109     1.635581
Ir     0.352945    -1.566024     0.035336
 C     2.798879     0.595005     1.471420
 C     3.489339    -0.329210    -1.092846
 C     1.554520     1.690158    -0.919604
 C    -2.186038     0.337026    -1.590711
 C    -3.144378    -1.259143     0.558624
 C    -1.629998     1.111593     1.139859
 P    -1.637171    -0.346358     0.033372
 P     1.990896     0.099424    -0.108028
 C     0.341507    -2.028714    -1.820390
 O     0.297074    -2.285571    -2.942179
 H     3.541441     1.378462     1.239703
 H     3.373706    -0.302627     1.749456
 C     1.879952     1.015702     2.607562
 H     1.208887     1.826847     2.280397
 H     1.212702     0.173143     2.853295
 C     2.628153     1.464155     3.866785
 H     3.302807     2.293694     3.578697
 C     1.649641     2.002466     4.903757
 H     1.051988     2.832982     4.498878
 H     2.175375     2.363204     5.801616
 H     0.946258     1.214908     5.221075
 C     3.484828     0.350220     4.459246
 H     3.993586     0.687132     5.375743
 H     4.262052     0.003809     3.761848
 H     2.861028    -0.520194     4.723666
 C     4.376074     0.665918    -1.526991
 C     3.775834    -1.666550    -1.378074
 C     5.808439    -1.013360    -2.508383
 C     4.931000    -2.007287    -2.081155
 C     5.528393     0.325086    -2.229902
 H     4.156601     1.718176    -1.327125
 H     6.209933     1.109651    -2.567811
 H     6.710737    -1.279524    -3.064437
 H     5.141591    -3.056882    -2.300036
 H     3.077994    -2.434986    -1.040344
 C     1.085954     1.625449    -2.240215
 C     1.679770     2.942239    -0.310976
 C     0.860569     4.029886    -2.309602
 C     1.326429     4.104102    -0.999932
 C     0.751474     2.784312    -2.933076
 H     0.994054     0.652236    -2.730849
 H     0.403786     2.716971    -3.966738
 H     0.587675     4.939494    -2.849657
 H     1.421047     5.074108    -0.505552
 H     2.047058     3.024686     0.712750
 H    -2.102497    -0.506070    -2.296298
 H    -1.399525     1.048121    -1.887546
 C    -3.576570     0.951759    -1.647842
 H    -4.320428     0.153874    -1.494504
 H    -3.717685     1.656978    -0.809214
 C    -3.886874     1.683511    -2.957098
 H    -3.618819     1.006513    -3.790235
 C    -5.378215     1.983039    -3.056514
 H    -5.978741     1.061616    -3.006151
 H    -5.624333     2.496599    -3.998963
 H    -5.700406     2.636022    -2.228066
 C    -3.068537     2.961829    -3.103241
 H    -3.273353     3.460131    -4.063565
 H    -1.986198     2.773086    -3.053798
 H    -3.317056     3.674667    -2.298800
 C    -3.256160    -2.600708     0.177384
 C    -4.213036    -0.652918     1.231749
 C    -5.468880    -2.716268     1.137647
 C    -5.364683    -1.380739     1.524682
 C    -4.413674    -3.323414     0.458528
 H    -2.414258    -3.074103    -0.332313
 H    -4.486184    -4.370387     0.154347
 H    -6.372970    -3.284934     1.368619
 H    -6.188720    -0.898087     2.055954
 H    -4.147535     0.395541     1.530085
 C    -1.712056     0.912731     2.525893
 C    -1.459097     2.411536     0.653310
 C    -1.492343     3.287781     2.906456
 C    -1.385649     3.491742     1.533380
 C    -1.656679     1.992129     3.400521
 H    -1.819535    -0.101500     2.919068
 H    -1.729833     1.821486     4.477026
 H    -1.443706     4.135425     3.594291
 H    -1.245218     4.499210     1.134453
 H    -1.368810     2.597296    -0.418291
