 102
scf done:    -2682.512979
 C    -2.248411    -1.182053    -2.884647
 H    -3.030974    -1.947050    -2.830292
 H    -2.600298    -0.246073    -3.330879
 C    -0.893152    -1.605347    -3.113060
 H    -0.688308    -2.675984    -3.215740
 H    -0.230842    -0.982302    -3.721547
 H    -0.722758     0.531267    -1.769687
Ir    -1.085010    -0.900875    -1.089069
 C    -3.079534     1.991082    -0.198482
 C    -4.071282    -0.421887     0.759984
 C    -1.766231     0.590385     2.051698
 C     1.325196    -0.900071     1.546619
 C     2.331971    -1.891461    -0.942252
 C     1.858599     0.927497    -0.680320
 P     1.100629    -0.694047    -0.296993
 P    -2.435100     0.327314     0.364008
 C    -1.457641    -2.597568    -0.270584
 O    -1.659688    -3.598907     0.261105
 H    -3.735312     1.701123    -1.034955
 H    -3.733927     2.356554     0.607528
 C    -2.132793     3.069509    -0.637203
 C    -1.919028     4.201516     0.162105
 H    -2.447547     4.298355     1.114539
 C    -1.482958     2.998205    -1.872061
 H    -1.665013     2.134242    -2.513920
 C    -1.054082     5.208474    -0.256730
 H    -0.900081     6.088919     0.372433
 C    -0.599931     3.992844    -2.303011
 C     0.093442     3.854745    -3.626161
 H     0.548470     2.857369    -3.721792
 H    -0.615331     3.975589    -4.461654
 H     0.887394     4.605289    -3.746082
 C    -0.390260     5.100569    -1.477258
 H     0.297470     5.888264    -1.796766
 C    -4.839077     0.046375     1.836584
 H    -4.449033     0.830264     2.491204
 C    -4.582130    -1.433100    -0.051764
 H    -3.975223    -1.781912    -0.890754
 C    -6.090813    -0.504708     2.083983
 H    -6.687493    -0.144215     2.925588
 C    -5.841729    -1.999890     0.186325
 C    -6.350241    -3.100839    -0.698013
 H    -6.358988    -2.790238    -1.754510
 H    -5.703162    -3.989920    -0.629735
 H    -7.370542    -3.403080    -0.423583
 C    -6.587359    -1.520877     1.265471
 H    -7.571409    -1.950848     1.472151
 C    -1.810436    -0.472901     2.963290
 H    -2.345507    -1.390989     2.707122
 C    -1.063076     1.748994     2.397467
 H    -1.011113     2.579175     1.692498
 C    -1.157412    -0.366568     4.187512
 H    -1.194140    -1.199297     4.894065
 C    -0.384422     1.860138     3.616903
 C     0.420785     3.087770     3.931936
 H     1.500731     2.868800     3.886563
 H     0.214545     3.897063     3.217026
 H     0.210493     3.461964     4.945399
 C    -0.441886     0.785234     4.510830
 H     0.083801     0.848412     5.467456
 H     0.762812    -0.078499     2.010443
 H     0.765164    -1.820351     1.769780
 C     2.723738    -0.980827     2.066578
 C     3.361708    -2.221106     2.196857
 H     2.818308    -3.134707     1.942984
 C     3.445051     0.175006     2.384040
 H     2.958888     1.148271     2.287414
 C     4.685264    -2.291214     2.619834
 H     5.173824    -3.264329     2.713086
 C     4.778984     0.124889     2.801254
 C     5.513492     1.389517     3.142628
 H     5.241609     2.206335     2.457287
 H     5.269517     1.725661     4.164455
 H     6.602992     1.249915     3.094980
 C     5.394103    -1.126819     2.912027
 H     6.437201    -1.188947     3.234834
 C     1.894626    -3.108239    -1.474565
 H     0.823931    -3.287623    -1.584571
 C     3.706086    -1.654644    -0.818961
 H     4.056917    -0.711196    -0.393042
 C     2.823416    -4.067869    -1.868861
 H     2.479566    -5.017314    -2.286291
 C     4.650111    -2.607514    -1.213713
 C     6.113978    -2.331057    -1.032315
 H     6.406963    -1.389177    -1.521890
 H     6.355716    -2.225465     0.037783
 H     6.734672    -3.138290    -1.445896
 C     4.188604    -3.818346    -1.740415
 H     4.911475    -4.576630    -2.054597
 C     1.647472     2.025936     0.157914
 H     1.071298     1.912700     1.076149
 C     2.559202     1.113878    -1.876843
 H     2.709126     0.265122    -2.549328
 C     2.163904     3.272791    -0.180989
 H     1.992929     4.125683     0.479550
 C     3.082140     2.361392    -2.231702
 C     3.810801     2.544157    -3.531512
 H     4.622312     3.280977    -3.439403
 H     4.243194     1.598430    -3.888101
 H     3.126978     2.909318    -4.316414
 C     2.884287     3.438641    -1.360400
 H     3.290569     4.421154    -1.616739
