 108
scf done:    -2161.451860
 C     0.775783    -3.611201     0.421754
 H     1.590902    -4.038934    -0.172338
 H     0.914942    -3.743285     1.499807
 C    -0.564031    -3.641916    -0.112399
 H    -0.730751    -4.091693    -1.097050
 H    -1.398794    -3.802232     0.577100
 H    -0.466850    -1.560778     1.365459
Ir     0.189216    -1.623387    -0.144571
 C     1.918839    -0.227029     2.604125
 C     3.611811    -0.958424     0.456727
 C     2.029098     1.441880     0.225040
 C    -1.000954     1.134307    -2.023759
 C    -3.063204    -0.785380    -1.264540
 C    -1.973350     0.988679     0.732363
 P    -1.465604    -0.065634    -0.690726
 P     1.906277    -0.322013     0.762092
 C     0.800210    -1.763917    -1.942897
 O     1.101095    -1.839928    -3.054619
 H     2.875301     0.210208     2.939385
 H     1.909906    -1.279071     2.931152
 C     0.741049     0.531371     3.191882
 H     0.769966     1.578638     2.842301
 H    -0.189657     0.095747     2.792404
 C     0.662244     0.540751     4.720512
 H     1.612720     0.954823     5.107998
 C    -0.468482     1.458425     5.173491
 H    -0.334834     2.483054     4.791607
 H    -0.530414     1.513294     6.271329
 H    -1.440538     1.091416     4.803238
 C     0.486928    -0.859768     5.296721
 H     0.406945    -0.829770     6.394400
 H     1.329485    -1.521294     5.046375
 H    -0.431015    -1.329196     4.905131
 H     3.592379    -2.008557     0.794002
 H     4.311127    -0.417836     1.115831
 C     4.050740    -0.881590    -0.996888
 H     3.264309    -1.315501    -1.632742
 H     4.142162     0.176010    -1.306822
 C     5.369899    -1.592688    -1.308387
 H     5.257236    -2.645992    -0.989132
 C     5.626402    -1.584105    -2.810926
 H     4.789198    -2.038690    -3.362856
 H     6.543248    -2.137495    -3.066783
 H     5.746955    -0.551973    -3.181108
 C     6.548189    -0.993677    -0.548802
 H     7.487783    -1.508900    -0.801848
 H     6.418654    -1.063287     0.541778
 H     6.675313     0.072424    -0.804310
 H     1.053635     1.898086     0.464490
 H     2.067153     1.395498    -0.874973
 C     3.161350     2.285376     0.788270
 H     3.142777     2.240204     1.890565
 H     4.134656     1.859957     0.484073
 C     3.119443     3.758022     0.366496
 H     2.146115     4.167498     0.698646
 C     4.221329     4.542352     1.069206
 H     4.147803     4.448666     2.164018
 H     4.176167     5.613490     0.818737
 H     5.216309     4.172698     0.769669
 C     3.207223     3.931131    -1.145915
 H     3.203527     4.996386    -1.423573
 H     2.365621     3.453220    -1.669526
 H     4.138873     3.488365    -1.537319
 H    -0.313114     0.590728    -2.691115
 H    -0.379339     1.884812    -1.509267
 C    -2.092102     1.796561    -2.854545
 H    -2.622109     1.021592    -3.432338
 H    -2.853574     2.263107    -2.207212
 C    -1.570242     2.856443    -3.830808
 H    -0.778895     2.383340    -4.442438
 C    -2.684458     3.305178    -4.769449
 H    -3.108562     2.455478    -5.326734
 H    -2.321608     4.041846    -5.502808
 H    -3.506163     3.776159    -4.204079
 C    -0.955898     4.053201    -3.111700
 H    -0.599537     4.807261    -3.830198
 H    -0.096906     3.770283    -2.484567
 H    -1.700403     4.541495    -2.459866
 H    -2.807838    -1.412940    -2.135471
 H    -3.732709     0.012960    -1.621112
 C    -3.727518    -1.629856    -0.186010
 H    -2.955414    -2.259774     0.284708
 H    -4.120249    -0.972686     0.611904
 C    -4.865041    -2.522800    -0.684622
 H    -4.446070    -3.174863    -1.474196
 C    -5.364236    -3.417956     0.443361
 H    -4.547508    -4.025603     0.862854
 H    -6.152432    -4.103809     0.095713
 H    -5.786631    -2.814689     1.264668
 C    -6.009426    -1.720597    -1.294066
 H    -6.822887    -2.380562    -1.633562
 H    -5.683321    -1.126900    -2.161507
 H    -6.435222    -1.023450    -0.551977
 H    -1.047388     1.462043     1.095035
 H    -2.243658     0.258813     1.510870
 C    -3.063353     2.031771     0.549759
 H    -2.714007     2.807773    -0.150897
 H    -3.958190     1.579744     0.084843
 C    -3.486906     2.715465     1.855037
 H    -2.569552     3.104284     2.337108
 C    -4.402024     3.898621     1.561600
 H    -3.916037     4.629960     0.896822
 H    -4.692007     4.423101     2.485175
 H    -5.328271     3.562519     1.065986
 C    -4.150219     1.745771     2.827055
 H    -4.439088     2.255068     3.759284
 H    -3.487980     0.911366     3.102229
 H    -5.064728     1.314864     2.385316
