 102
scf done:    -3054.899501
 C    -1.062228     0.297794    -3.252810
 H    -1.650997    -0.528734    -3.665001
 H    -1.618996     1.238091    -3.200265
 C     0.356556     0.336479    -3.484743
 H     0.815366    -0.464311    -4.075945
 H     0.844193     1.307366    -3.614865
 H    -0.025683     1.478773    -1.244968
Ir    -0.040230    -0.149208    -1.421152
 C    -2.495812     1.679137     0.037416
 C    -3.331867    -1.120629    -0.357007
 C    -1.732146    -0.488915     1.824563
 C     2.500799    -1.401287     0.879447
 C     3.440792     0.548056    -0.829666
 C     1.569804     1.387188     1.223839
 P     1.845617     0.072849    -0.036662
 P    -1.884523    -0.052832     0.037672
 C     0.054721    -2.035417    -1.701919
 O     0.122683    -3.171646    -1.894933
 C    -1.831578     2.636968     0.805480
 H    -1.018097     2.325481     1.461047
 C    -3.481149     2.118680    -0.869478
 O    -4.035274     1.181878    -1.660940
 C    -5.007136     1.535096    -2.598304
 H    -5.899136     1.977840    -2.120157
 H    -5.298892     0.605605    -3.103716
 H    -4.614914     2.244541    -3.348330
 C    -2.164513     3.988827     0.739165
 H    -1.624215     4.707042     1.359118
 C    -3.823590     3.473774    -0.935398
 H    -4.593569     3.810856    -1.629781
 C    -3.170425     4.402893    -0.127059
 H    -3.446156     5.458309    -0.193473
 C    -3.224583    -2.121054    -1.316314
 H    -2.287423    -2.215167    -1.862545
 C    -4.555973    -0.975299     0.330452
 O    -4.630955     0.035847     1.214943
 C    -5.795209     0.222908     1.963344
 H    -6.663936     0.450515     1.320576
 H    -5.607546     1.080661     2.621828
 H    -6.030302    -0.659764     2.583399
 C    -4.284518    -2.986237    -1.593431
 H    -4.169667    -3.765882    -2.349121
 C    -5.621088    -1.838586     0.060866
 H    -6.567745    -1.731218     0.590982
 C    -5.478782    -2.842425    -0.898524
 H    -6.319317    -3.511592    -1.099457
 C    -2.173236     0.314533     2.875864
 H    -2.688384     1.246935     2.645464
 C    -1.123551    -1.726501     2.137787
 O    -0.811815    -2.521815     1.104161
 C    -0.235197    -3.778830     1.343063
 H     0.738678    -3.687575     1.850696
 H    -0.082366    -4.234883     0.358570
 H    -0.906820    -4.417532     1.942682
 C    -1.959991    -0.041631     4.207144
 H    -2.308629     0.612657     5.009184
 C    -0.883105    -2.075556     3.472273
 H    -0.378596    -3.011201     3.711494
 C    -1.295284    -1.228113     4.499691
 H    -1.103827    -1.513539     5.537140
 C     2.698655    -1.501391     2.256848
 H     2.481862    -0.646068     2.892347
 C     2.906501    -2.497219     0.079945
 O     2.814997    -2.324559    -1.246651
 C     3.237063    -3.328051    -2.124439
 H     4.302962    -3.572065    -1.975715
 H     3.098878    -2.927769    -3.136467
 H     2.627836    -4.241188    -2.017813
 C     3.204235    -2.661141     2.847573
 H     3.338782    -2.702241     3.930514
 C     3.405170    -3.665593     0.665384
 H     3.697484    -4.509369     0.040390
 C     3.543581    -3.747588     2.049752
 H     3.935437    -4.664228     2.497410
 C     3.555153     0.495054    -2.213969
 H     2.665372     0.209625    -2.778125
 C     4.566590     0.910503    -0.064420
 O     4.399541     0.946858     1.271847
 C     5.467690     1.299909     2.098880
 H     6.313752     0.597125     2.000064
 H     5.089595     1.260106     3.128451
 H     5.827097     2.323189     1.890713
 C     4.757236     0.798798    -2.854033
 H     4.825978     0.752112    -3.943023
 C     5.773895     1.218846    -0.699325
 H     6.649535     1.504164    -0.115532
 C     5.861906     1.161641    -2.090917
 H     6.811438     1.404657    -2.574870
 C     1.015579     1.140502     2.480270
 H     0.739061     0.126808     2.762966
 C     1.778402     2.736142     0.851101
 O     2.215711     2.948243    -0.399174
 C     2.306403     4.247079    -0.905184
 H     1.330710     4.762263    -0.871398
 H     2.625539     4.147000    -1.950195
 H     3.054386     4.850012    -0.360361
 C     0.752699     2.171759     3.385868
 H     0.317929     1.932974     4.357633
 C     1.515976     3.771451     1.752727
 H     1.689772     4.807125     1.460485
 C     1.019213     3.485580     3.024369
 H     0.819776     4.304036     3.720427
