  98
scf done:    -3151.034507
 C    -0.717766     3.165034    -1.569001
 H    -1.388672     3.212536    -2.434116
 H    -1.074215     3.751415    -0.715900
 C     0.698993     3.065758    -1.804142
 H     1.062451     3.027132    -2.836430
 H     1.387796     3.566239    -1.117166
 H     0.207013     1.928461     0.410978
Ir    -0.035546     1.197869    -1.026482
 C    -0.884348    -0.372787     1.918990
 C    -3.119102     1.150917     0.766129
 C    -2.369929    -1.419823    -0.353396
 C     1.768509    -1.827886    -0.359065
 C     3.205059     0.088130    -1.879772
 C     2.830089     0.608191     0.976497
 P     1.913093     0.008042    -0.526507
 P    -1.622531     0.140597     0.311079
 C    -0.472563     0.431683    -2.723051
 O    -0.796889    -0.027649    -3.730085
 C    -0.341158    -1.651710     2.077373
 H    -0.464333    -2.393881     1.288122
 C    -0.696905     0.556686     2.965843
 O    -1.211530     1.788909     2.777069
 C    -1.163606     2.732971     3.810726
 H    -1.680134     2.371056     4.716345
 H    -1.675876     3.628307     3.437069
 H    -0.126290     3.002348     4.075294
 C     0.368473    -2.013896     3.221791
 H     0.778970    -3.022031     3.305220
 C     0.007737     0.196478     4.119109
 H     0.147699     0.915832     4.926110
 C     0.542014    -1.085716     4.241362
 H     1.093465    -1.351984     5.146059
 H    -3.502163     0.805178     1.736245
 H    -2.734098     2.170145     0.906806
 C    -4.210503     1.110827    -0.265165
 C    -3.968205     1.445606    -1.604424
 H    -2.961869     1.749733    -1.901181
 C    -5.507058     0.729987     0.098319
 H    -5.712379     0.445346     1.133571
 C    -4.983453     1.385509    -2.555423
 H    -4.800156     1.638718    -3.601281
 C    -6.536937     0.678468    -0.836508
 H    -7.547706     0.376002    -0.557449
 C    -6.258634     1.002244    -2.157753
 F    -7.236182     0.944440    -3.064006
 H    -2.554651    -1.193094    -1.414017
 H    -1.560658    -2.166591    -0.355762
 C    -3.624398    -1.968887     0.265796
 C    -4.685361    -2.345632    -0.567331
 H    -4.589557    -2.210887    -1.647790
 C    -3.786683    -2.124597     1.648457
 H    -2.979648    -1.841654     2.326406
 C    -5.871629    -2.857116    -0.051789
 H    -6.702065    -3.140669    -0.700676
 C    -4.970711    -2.627678     2.183255
 H    -5.104112    -2.747338     3.260022
 C    -6.001188    -2.988391     1.324601
 F    -7.136980    -3.468289     1.832551
 C     0.841004    -2.427707    -1.215737
 H     0.255872    -1.781192    -1.872117
 C     2.535223    -2.670966     0.473621
 O     3.470105    -2.096398     1.248978
 C     4.332705    -2.892519     2.012810
 H     3.789082    -3.454146     2.792352
 H     5.038357    -2.206128     2.497245
 H     4.899248    -3.597502     1.381434
 C     0.634755    -3.805640    -1.247552
 H    -0.098983    -4.235359    -1.932205
 C     2.311196    -4.053676     0.470610
 H     2.888720    -4.702875     1.128432
 C     1.365246    -4.615076    -0.383728
 H     1.209360    -5.696483    -0.373552
 H     2.651672    -0.149284    -2.800579
 H     3.497498     1.146309    -1.952857
 C     4.370802    -0.831686    -1.690415
 C     5.529341    -0.431772    -1.011558
 H     5.635567     0.603321    -0.681446
 C     4.296806    -2.162442    -2.127430
 H     3.411184    -2.500669    -2.669945
 C     6.563556    -1.325232    -0.743917
 H     7.465997    -1.014371    -0.214522
 C     5.318387    -3.070719    -1.868644
 H     5.256712    -4.108395    -2.201135
 C     6.436882    -2.642058    -1.165475
 F     7.410636    -3.512747    -0.892357
 H     2.275782     0.199562     1.834489
 H     3.821131     0.138735     0.982500
 C     2.924403     2.101883     1.066406
 C     3.890551     2.826915     0.359329
 H     4.618102     2.302372    -0.261932
 C     2.024715     2.821747     1.861503
 H     1.267176     2.274073     2.420889
 C     3.954473     4.217268     0.424620
 H     4.706476     4.782454    -0.128427
 C     2.069256     4.209440     1.941500
 H     1.363671     4.772311     2.555349
 C     3.034753     4.893971     1.213805
 F     3.085302     6.223924     1.284403
