  86
scf done:    -2445.897911
 C     2.179934    -2.423370    -0.488642
 H     2.767492    -2.278519    -1.400035
 H     2.784026    -2.420587     0.422356
 C     0.981381    -3.202977    -0.548683
 H     0.671410    -3.644242    -1.500763
 H     0.682371    -3.790738     0.323538
 H     0.608347    -1.384846     1.262091
Ir     0.458828    -1.111278    -0.349879
 O     2.506538     1.156767     1.098331
 O     1.407754     1.943103    -1.092303
 O     0.221768     2.000123     1.090594
 O    -2.734670    -0.034109     0.475020
 O    -2.575672    -1.817618    -1.354859
 O    -2.347615    -2.378548     1.040651
 P    -1.780383    -1.313046    -0.043377
 P     1.118985     0.990618     0.186484
 C     0.396554    -0.791972    -2.250996
 O     0.363669    -0.577896    -3.374646
 C     3.618073     0.382435     0.918947
 C     4.150310     0.159540    -0.349596
 H     3.652820     0.593960    -1.218769
 C     4.217715    -0.170790     2.049225
 H     3.775772     0.015186     3.029527
 C     5.289881    -0.634576    -0.511015
 C     5.819744    -0.916136    -1.886725
 H     5.776151    -0.022396    -2.526722
 H     6.860553    -1.267909    -1.855800
 H     5.219804    -1.698440    -2.381331
 C     5.360828    -0.948886     1.893810
 H     5.841099    -1.384215     2.773502
 C     5.892003    -1.183490     0.626081
 H     6.786061    -1.802451     0.516464
 C     1.806017     3.319890    -0.947890
 H     2.118549     3.482409     0.097468
 C     0.619126     4.203751    -1.262674
 H    -0.221737     3.963758    -0.599092
 H     0.290309     4.045820    -2.301000
 H     0.885137     5.264686    -1.138237
 C     2.991239     3.548347    -1.861461
 H     3.841639     2.916056    -1.569254
 H     2.720609     3.313009    -2.902149
 H     3.312928     4.599483    -1.814817
 C     0.286434     2.199346     2.505911
 H     1.349254     2.266385     2.789616
 C    -0.354233     1.036915     3.236803
 H     0.200384     0.107205     3.045651
 H    -1.389986     0.894905     2.894573
 H    -0.358903     1.219641     4.321801
 C    -0.391002     3.525088     2.779540
 H     0.097222     4.331328     2.213192
 H    -1.447242     3.484378     2.477113
 H    -0.337190     3.768798     3.850931
 C    -2.784501     1.193227    -0.113343
 C    -3.257013     2.245208     0.674699
 H    -3.536622     2.030012     1.708569
 C    -2.428448     1.418111    -1.444356
 H    -2.083816     0.598216    -2.073822
 C    -3.378545     3.534163     0.156207
 C    -3.853128     4.667767     1.018737
 H    -4.339209     4.304153     1.935059
 H    -3.009024     5.309437     1.322311
 H    -4.569059     5.308493     0.482334
 C    -2.552269     2.705587    -1.964566
 H    -2.276977     2.884282    -3.006735
 C    -3.020119     3.754459    -1.181104
 H    -3.110818     4.756778    -1.607573
 C    -3.983187    -2.134342    -1.342527
 H    -4.416771    -1.743221    -0.407314
 C    -4.130499    -3.640667    -1.375922
 H    -3.639880    -4.086692    -0.500326
 H    -3.666345    -4.049459    -2.286465
 H    -5.193850    -3.924350    -1.368537
 C    -4.616073    -1.432859    -2.524382
 H    -4.493837    -0.343417    -2.443706
 H    -4.148343    -1.768259    -3.462759
 H    -5.691873    -1.658611    -2.571446
 C    -1.967133    -2.355060     2.422234
 H    -1.092286    -1.691350     2.527671
 C    -1.560248    -3.759935     2.808344
 H    -0.712024    -4.094300     2.194798
 H    -2.397675    -4.458087     2.655326
 H    -1.262881    -3.798854     3.866823
 C    -3.122504    -1.808843     3.236100
 H    -3.397812    -0.806272     2.881280
 H    -4.002549    -2.463370     3.139280
 H    -2.850220    -1.747156     4.300552
