  98
scf done:    -2602.913521
 C     1.280178    -3.110042    -0.897629
 H     2.017289    -3.076468    -1.707015
 H     1.630398    -3.653658    -0.015199
 C    -0.118254    -3.132429    -1.234584
 H    -0.403466    -3.123712    -2.292002
 H    -0.812664    -3.693987    -0.602984
 H     0.085044    -1.935098     1.028612
Ir     0.408233    -1.209221    -0.401263
 C     3.567234    -0.956436     1.090753
 O     2.451862     1.328777     0.082566
 O     1.555308     0.328505     2.304562
 C    -1.790661     1.630368    -0.403579
 O    -2.909878    -0.859003    -0.500035
 O    -1.897242    -0.169411     1.677247
 P    -1.556694    -0.133008     0.090571
 P     1.990219    -0.086952     0.781760
 C     0.881487    -0.407253    -2.085268
 O     1.229634     0.079058    -3.067239
 C     3.912830    -1.398258     2.368393
 H     3.276181    -1.116359     3.209497
 C     4.353166    -1.363906    -0.007307
 O     3.957731    -0.906404    -1.209460
 C     4.535823    -1.419658    -2.378274
 H     5.596956    -1.129658    -2.471723
 H     3.969865    -0.989894    -3.214273
 H     4.456267    -2.519465    -2.415926
 C     5.028325    -2.210620     2.571622
 H     5.285429    -2.547185     3.577891
 C     5.466216    -2.184525     0.189189
 H     6.076960    -2.502933    -0.656017
 C     5.798472    -2.598528     1.479760
 H     6.671373    -3.239759     1.624411
 C     3.703482     1.991234     0.136018
 H     3.590512     2.881909     0.781029
 H     4.465400     1.338410     0.594247
 C     4.122160     2.401654    -1.259946
 H     5.097304     2.915279    -1.185579
 H     4.286116     1.487108    -1.850954
 C     3.111670     3.291682    -1.968247
 H     2.945751     4.205399    -1.368571
 H     2.146289     2.763317    -2.002757
 C     3.533641     3.666015    -3.378983
 H     4.493292     4.208287    -3.386009
 H     3.656412     2.766444    -4.003191
 H     2.784635     4.306455    -3.868801
 C     2.103055     1.420209     3.026423
 H     2.067341     1.128526     4.089369
 H     3.165820     1.572368     2.769194
 C     1.296770     2.686807     2.805896
 H     1.762304     3.499382     3.392142
 H     1.374263     2.978341     1.744827
 C    -0.169034     2.527021     3.183464
 H    -0.239919     2.290870     4.260697
 H    -0.562793     1.646106     2.654233
 C    -1.013547     3.748569     2.862496
 H    -0.642900     4.648757     3.380185
 H    -1.009663     3.959134     1.781424
 H    -2.061758     3.601289     3.165172
 C    -0.624699     2.361176    -0.650947
 H     0.339813     1.861291    -0.538837
 C    -3.033938     2.287296    -0.562016
 O    -4.151599     1.573755    -0.326906
 C    -5.406397     2.177969    -0.460217
 H    -5.528854     3.027929     0.233731
 H    -6.147341     1.406817    -0.214819
 H    -5.584997     2.528946    -1.491468
 C    -0.657878     3.702190    -1.028663
 H     0.273947     4.240973    -1.208334
 C    -3.070767     3.633068    -0.948253
 H    -4.025544     4.143385    -1.073612
 C    -1.887624     4.332811    -1.176529
 H    -1.938956     5.382450    -1.476438
 C    -3.045058    -1.042196    -1.894550
 H    -3.256232    -0.068201    -2.376792
 H    -2.096707    -1.428391    -2.308336
 C    -4.176285    -2.012888    -2.147785
 H    -4.213060    -2.227350    -3.230224
 H    -3.930247    -2.965508    -1.647455
 C    -5.531475    -1.513165    -1.667974
 H    -5.787295    -0.586547    -2.212491
 H    -5.439227    -1.226066    -0.608210
 C    -6.642799    -2.536136    -1.832105
 H    -6.764609    -2.835165    -2.885928
 H    -6.427564    -3.450286    -1.255405
 H    -7.611221    -2.145687    -1.483420
 C    -3.007087     0.412427     2.344218
 H    -2.688376     0.489586     3.396185
 H    -3.178674     1.436957     1.974692
 C    -4.271111    -0.417168     2.233503
 H    -5.038594     0.064532     2.866589
 H    -4.631796    -0.365793     1.196020
 C    -4.090830    -1.872108     2.638412
 H    -3.745523    -1.924878     3.686423
 H    -3.280521    -2.303413     2.029705
 C    -5.358121    -2.693462     2.467301
 H    -6.186278    -2.294392     3.076096
 H    -5.692102    -2.690789     1.416913
 H    -5.205080    -3.742725     2.762344
