 102
scf done:    -3055.139946
 C     1.671267    -2.763137    -1.988541
 H     2.172284    -2.533806    -2.934401
 H     2.346454    -3.128011    -1.209117
 C     0.311389    -3.216935    -2.012303
 H    -0.203251    -3.324051    -2.971830
 H    -0.027502    -3.926754    -1.252662
 H     0.609606    -1.928375     0.161389
Ir     0.372465    -1.190606    -1.269666
 O     3.104428     0.049533     0.312339
 O     2.103290     1.726657    -1.169020
 O     0.884453     1.111667     0.981391
 O    -2.243997     0.782795    -0.939556
 O    -2.869119    -1.723763    -0.833768
 O    -1.897171    -0.483666     1.166647
 P    -1.666763    -0.663371    -0.459671
 P     1.627627     0.415291    -0.313008
 C     0.135708    -0.380873    -3.017836
 O    -0.007794     0.107408    -4.042414
 C     3.441001    -1.152506     0.879321
 C     4.588042    -1.780522     0.404087
 H     5.148217    -1.296950    -0.399640
 C     2.684694    -1.712677     1.909593
 H     1.782906    -1.217148     2.274349
 C     5.006393    -2.999355     0.947406
 C     6.235432    -3.679734     0.418038
 H     6.093072    -3.994724    -0.628301
 H     7.105164    -3.004816     0.436843
 H     6.485463    -4.573632     1.006007
 C     3.098729    -2.927698     2.448320
 H     2.509355    -3.378430     3.249209
 C     4.243721    -3.565935     1.975171
 H     4.553619    -4.519486     2.410267
 C     3.388827     2.217146    -1.311145
 C     3.785986     3.310619    -0.549966
 H     3.091718     3.735882     0.175650
 C     4.233313     1.627130    -2.261499
 C     3.767044     0.462379    -3.078452
 H     3.533547    -0.409585    -2.446506
 H     2.843985     0.706998    -3.626332
 H     4.532427     0.161602    -3.806399
 C     5.063247     3.838537    -0.724019
 H     5.377807     4.696155    -0.125195
 C     5.509997     2.176785    -2.412490
 H     6.186740     1.734541    -3.148756
 C     5.929026     3.268714    -1.654131
 H     6.932860     3.675949    -1.794470
 C     1.350243     2.227380     1.640880
 C     2.382482     2.114404     2.567409
 H     2.839021     1.139676     2.742956
 C     0.717212     3.450212     1.372619
 C    -0.389461     3.523215     0.367520
 H    -0.784755     4.544426     0.288312
 H    -0.037787     3.204901    -0.625806
 H    -1.219104     2.850775     0.633346
 C     2.820589     3.251096     3.243438
 H     3.636177     3.170795     3.965403
 C     1.174347     4.572058     2.071382
 H     0.699834     5.538178     1.879886
 C     2.217213     4.481877     2.993292
 H     2.556038     5.376901     3.519885
 C    -3.369945     1.531058    -0.678351
 C    -4.022591     1.533161     0.550557
 H    -3.649175     0.906710     1.358227
 C    -3.810613     2.341818    -1.724423
 H    -3.259687     2.337887    -2.666272
 C    -5.166995     2.316877     0.735168
 C    -5.894476     2.265413     2.046628
 H    -6.416852     1.301123     2.157189
 H    -5.198945     2.356994     2.894832
 H    -6.642010     3.066797     2.127684
 C    -4.939845     3.130489    -1.536499
 H    -5.294006     3.766394    -2.351384
 C    -5.620742     3.113493    -0.319995
 H    -6.512359     3.730797    -0.185086
 C    -4.205193    -1.520137    -0.547739
 C    -4.689156    -1.773418     0.732322
 H    -4.007540    -2.146244     1.498456
 C    -5.036227    -1.072799    -1.584015
 C    -4.491161    -0.880442    -2.965304
 H    -3.613703    -0.218105    -2.966185
 H    -4.160715    -1.841225    -3.391154
 H    -5.250272    -0.447396    -3.629911
 C    -6.031218    -1.530703     1.015312
 H    -6.416334    -1.722434     2.019532
 C    -6.374892    -0.827482    -1.267408
 H    -7.039676    -0.456788    -2.051844
 C    -6.871526    -1.042247     0.017185
 H    -7.922129    -0.837035     0.234599
 C    -1.333981    -1.247264     2.153108
 C    -1.163892    -2.624168     2.007281
 H    -1.472532    -3.112245     1.081176
 C    -0.972042    -0.580264     3.334262
 C    -1.234433     0.885005     3.491180
 H    -0.604413     1.319395     4.278857
 H    -1.044257     1.421082     2.554157
 H    -2.288416     1.066166     3.761897
 C    -0.594007    -3.359965     3.044037
 H    -0.453857    -4.436563     2.925317
 C    -0.397695    -1.345513     4.353300
 H    -0.098369    -0.843434     5.277250
 C    -0.204126    -2.720073     4.217705
 H     0.245807    -3.290184     5.033686
