  84
scf done:    -1847.194335
 C    -1.808662    -2.328500    -1.949925
 H    -2.546391    -2.998454    -1.494957
 H    -2.224609    -1.714797    -2.755488
 C    -0.438848    -2.770932    -2.048587
 H    -0.179880    -3.765109    -1.668207
 H     0.146647    -2.484958    -2.928763
 H    -0.341503    -0.225033    -1.842839
Ir    -0.591373    -1.229008    -0.559393
 C    -2.269351     1.851997    -0.946042
 C    -3.745885    -0.216520     0.424082
 C    -1.719284     1.311380     1.812651
 C     1.760639     0.944537     0.949025
 C     2.558085    -1.823932     0.965119
 C     2.613858    -0.331146    -1.549515
 P     1.594818    -0.610105    -0.032938
 P    -2.032550     0.438709     0.213557
 C    -0.856470    -2.425668     0.899597
 O    -0.996287    -3.146352     1.789318
 H    -3.077531     2.505650    -0.575761
 H    -2.618384     1.387675    -1.882053
 C    -0.999684     2.655305    -1.185480
 H    -0.687668     3.134745    -0.241791
 H    -0.191562     1.956913    -1.465732
 C    -1.101197     3.741768    -2.259015
 H    -1.936714     4.413710    -1.984870
 C     0.179654     4.569195    -2.276785
 H     0.382929     5.020895    -1.292846
 H     0.126528     5.382147    -3.017319
 H     1.046069     3.938007    -2.537711
 C    -1.391602     3.163443    -3.639385
 H    -1.436049     3.957751    -4.400499
 H    -2.349421     2.623367    -3.671754
 H    -0.601558     2.454324    -3.938102
 H    -4.022194    -0.593221    -0.575626
 H    -3.641989    -1.119329     1.049617
 C    -4.824370     0.701642     0.982560
 H    -4.888131     1.622465     0.378385
 H    -4.547491     1.025869     1.999948
 C    -6.189948     0.031075     1.024811
 H    -6.516724    -0.270630     0.016981
 H    -6.167257    -0.877364     1.647629
 H    -6.958098     0.701754     1.439247
 H    -0.810354     1.914569     1.662108
 H    -2.539243     2.024961     2.005047
 C    -1.519604     0.375895     2.995305
 H    -0.750373    -0.369435     2.732399
 H    -2.441054    -0.204719     3.174092
 C    -1.118121     1.107873     4.266289
 H    -0.170700     1.654339     4.125955
 H    -1.880138     1.845518     4.564746
 H    -0.980040     0.411219     5.107004
 H     1.238298     0.718216     1.894763
 H     1.115684     1.659693     0.417641
 C     3.120758     1.562209     1.232743
 H     3.808994     0.801542     1.638273
 H     3.573598     1.916168     0.289999
 C     3.068907     2.738856     2.213891
 H     2.638634     2.358725     3.160396
 C     4.475524     3.246498     2.508711
 H     5.122173     2.442235     2.893006
 H     4.463821     4.055288     3.255580
 H     4.947212     3.645013     1.594894
 C     2.174823     3.870659     1.717293
 H     2.192180     4.722685     2.414101
 H     1.125494     3.556856     1.610629
 H     2.514311     4.237135     0.733497
 H     3.576433    -1.439718     1.145822
 H     2.053214    -1.862365     1.946402
 C     2.609203    -3.219049     0.355706
 H     3.112598    -3.176584    -0.625479
 H     1.581580    -3.551927     0.141492
 C     3.312397    -4.226387     1.251294
 H     4.352470    -3.926849     1.459304
 H     2.795337    -4.322505     2.219453
 H     3.339040    -5.224600     0.788590
 H     2.236309    -1.063469    -2.281062
 H     2.289859     0.652208    -1.934445
 C     4.133099    -0.411429    -1.461066
 H     4.428867    -1.419669    -1.127263
 H     4.515195     0.280939    -0.695687
 C     4.799396    -0.109889    -2.795644
 H     4.457732    -0.806958    -3.577328
 H     4.560991     0.909689    -3.138934
 H     5.894975    -0.192483    -2.728880
