 106
scf done:    -2459.336179
 C     1.541475    -3.842796    -0.781957
 H     2.147359    -3.964089    -1.686478
 H     2.066852    -4.144161     0.129712
 C     0.116833    -4.057636    -0.870293
 H    -0.315546    -4.335183    -1.837521
 H    -0.402961    -4.512625    -0.021538
 H     0.499148    -2.320696     0.993653
Ir     0.515431    -1.959235    -0.608820
 O     1.224542     0.424029     1.508670
 C     3.561587    -0.732543     0.758852
 C     2.199885     1.106702    -1.019300
 O    -1.239408     0.830379    -0.658246
 C    -2.909481    -1.308646    -1.197704
 C    -2.021538    -0.683467     1.495518
 P    -1.430661    -0.801172    -0.230111
 P     1.899607    -0.287124     0.135981
 C     0.575437    -1.572284    -2.485020
 O     0.609927    -1.306572    -3.603577
 C     1.446412     1.702642     1.927198
 C     0.707031     2.744218     1.363549
 H    -0.023311     2.496498     0.593393
 C     2.376430     1.961529     2.934443
 H     2.925900     1.131785     3.382523
 C     0.914732     4.066940     1.759718
 C     0.154106     5.182933     1.103633
 H    -0.768345     4.815684     0.630710
 H    -0.111395     5.970300     1.824621
 H     0.761250     5.657340     0.314072
 C     2.580725     3.279261     3.340506
 H     3.309126     3.493771     4.126444
 C     1.867508     4.323591     2.755100
 H     2.043384     5.351864     3.081868
 H     4.050345     0.161124     1.182210
 H     3.379949    -1.437067     1.587086
 C     4.419651    -1.383785    -0.317404
 H     3.845907    -2.207677    -0.775112
 H     4.615650    -0.661096    -1.129578
 C     5.745640    -1.911756     0.211348
 H     5.548612    -2.635371     1.023083
 H     6.314371    -1.086047     0.677131
 C     6.600298    -2.575135    -0.859476
 H     6.022977    -3.394840    -1.322219
 H     6.790196    -1.850152    -1.670929
 C     7.921368    -3.111347    -0.332509
 H     8.515278    -3.584623    -1.129063
 H     7.760332    -3.865563     0.454592
 H     8.533738    -2.306442     0.105362
 H     2.410001     0.617717    -1.985460
 H     1.204882     1.564603    -1.146447
 C     3.265264     2.148451    -0.690180
 H     3.266293     2.380270     0.385339
 H     4.266451     1.739844    -0.910485
 C     3.057725     3.448445    -1.454738
 H     2.027812     3.803539    -1.268441
 H     3.118066     3.259891    -2.542139
 C     4.038431     4.543655    -1.062420
 H     3.967315     4.706526     0.027846
 H     5.069992     4.194985    -1.247502
 C     3.800665     5.855367    -1.792692
 H     4.520248     6.629615    -1.486012
 H     2.788801     6.244255    -1.592106
 H     3.891357     5.729790    -2.883687
 C    -2.242076     1.736227    -0.841309
 C    -2.757489     2.451493     0.240754
 H    -2.357105     2.261989     1.239044
 C    -2.709312     1.981530    -2.135284
 H    -2.271467     1.431788    -2.970432
 C    -3.772142     3.398202     0.054823
 C    -4.303743     4.169467     1.227983
 H    -4.586897     3.498702     2.053519
 H    -3.540664     4.860475     1.622151
 H    -5.185392     4.764937     0.953773
 C    -3.722558     2.915256    -2.324030
 H    -4.101265     3.105228    -3.331231
 C    -4.256700     3.612635    -1.239793
 H    -5.053345     4.342982    -1.401897
 H    -2.684798    -1.008535    -2.236143
 H    -2.863289    -2.410708    -1.202234
 C    -4.289022    -0.820517    -0.769697
 H    -4.558905    -1.278847     0.196935
 H    -4.279812     0.266553    -0.597385
 C    -5.366752    -1.138855    -1.796388
 H    -5.402019    -2.229145    -1.974716
 H    -5.085160    -0.684817    -2.764020
 C    -6.746678    -0.639806    -1.391864
 H    -7.024305    -1.088541    -0.421462
 H    -6.692895     0.448899    -1.213284
 C    -7.824055    -0.938844    -2.421476
 H    -8.808198    -0.563924    -2.101806
 H    -7.921602    -2.022605    -2.595384
 H    -7.589260    -0.471569    -3.391482
 H    -1.191148    -0.203027     2.038517
 H    -2.895784    -0.014170     1.539480
 C    -2.343153    -2.042418     2.103263
 H    -3.171712    -2.519783     1.550386
 H    -1.470602    -2.704291     1.974626
 C    -2.709477    -1.955500     3.578134
 H    -3.577274    -1.282318     3.705719
 H    -1.877649    -1.479660     4.128267
 C    -3.022166    -3.307795     4.202938
 H    -3.850426    -3.780852     3.645822
 H    -2.153339    -3.975557     4.067188
 C    -3.379575    -3.223830     5.677981
 H    -3.599329    -4.215905     6.100772
 H    -4.266461    -2.589755     5.839311
 H    -2.554482    -2.787979     6.264120
