 104
scf done:    -2757.240392
 C    -0.058802    -3.796601     0.738844
 H     0.661164    -4.388069     0.162623
 H     0.059957    -3.905988     1.820431
 C    -1.368977    -3.575456     0.198967
 H    -1.615272    -3.989168    -0.783938
 H    -2.227370    -3.514477     0.872671
 H    -0.851047    -1.521967     1.629855
Ir    -0.240483    -1.729180     0.125243
 C     1.482583     0.058183     2.670236
 O     3.086311    -1.097371     1.085033
 O     1.731092     0.843732     0.021841
 C    -1.253470     0.889567    -2.037275
 O    -3.205802    -0.345803    -0.789447
 O    -1.745382     1.178493     0.664133
 P    -1.605486    -0.004263    -0.492425
 P     1.525644    -0.537288     0.949455
 C     0.382625    -2.033966    -1.671882
 O     0.709615    -2.195529    -2.760136
 H     2.465079     0.512108     2.879050
 H     1.422862    -0.866143     3.267779
 C     0.332011     1.000871     2.972698
 H     0.371073     1.855504     2.279647
 H    -0.621877     0.496038     2.752256
 C     0.296541     1.543669     4.401641
 H     1.259819     2.054212     4.595653
 C    -0.816474     2.579475     4.520800
 H    -0.691825     3.391429     3.787394
 H    -0.846520     3.027528     5.526064
 H    -1.799139     2.116014     4.331030
 C     0.132821     0.439325     5.439149
 H     0.083536     0.855009     6.457465
 H     0.966249    -0.279157     5.418079
 H    -0.798604    -0.124451     5.262247
 C     3.860798    -1.704644     0.129918
 C     3.384850    -2.759760    -0.644341
 H     2.375429    -3.127606    -0.465786
 C     5.183744    -1.245528     0.009590
 C     5.712458    -0.188600     0.928635
 H     5.167404     0.759350     0.817074
 H     5.601415    -0.495614     1.980234
 H     6.776145     0.001901     0.732437
 C     4.202492    -3.325517    -1.620724
 H     3.818464    -4.141136    -2.237440
 C     5.981544    -1.836810    -0.973527
 H     7.011326    -1.487384    -1.088116
 C     5.499901    -2.853568    -1.797733
 H     6.146548    -3.288839    -2.562800
 C     2.816428     1.673263    -0.071367
 C     3.135058     2.563020     0.953836
 H     2.531225     2.575138     1.862062
 C     3.534440     1.655102    -1.279212
 C     3.141670     0.718642    -2.379372
 H     2.071993     0.814905    -2.619346
 H     3.724507     0.915477    -3.288768
 H     3.306334    -0.331878    -2.092543
 C     4.212403     3.434585     0.802229
 H     4.465577     4.127573     1.607635
 C     4.607575     2.541633    -1.403013
 H     5.182957     2.539931    -2.332567
 C     4.954246     3.419410    -0.376250
 H     5.800470     4.098248    -0.502186
 H    -0.997555     0.091405    -2.754694
 H    -0.311604     1.424449    -1.838656
 C    -2.329842     1.796146    -2.616958
 H    -3.232017     1.193660    -2.804477
 H    -2.620774     2.564905    -1.883078
 C    -1.905778     2.496257    -3.911091
 H    -1.604301     1.713975    -4.633782
 C    -3.090209     3.252126    -4.502345
 H    -3.944149     2.582264    -4.688358
 H    -2.824688     3.734566    -5.455690
 H    -3.429899     4.041792    -3.811552
 C    -0.718510     3.430857    -3.701934
 H    -0.449212     3.942008    -4.639055
 H     0.179177     2.898382    -3.352068
 H    -0.958780     4.202254    -2.951631
 C    -3.890466    -1.320320    -0.107735
 C    -3.998284    -1.286321     1.280033
 H    -3.507280    -0.483974     1.832055
 C    -4.478598    -2.339441    -0.868865
 C    -4.291825    -2.363422    -2.354050
 H    -4.645927    -1.430315    -2.818790
 H    -3.223707    -2.458167    -2.609356
 H    -4.830447    -3.206196    -2.807908
 C    -4.709302    -2.287678     1.937696
 H    -4.788121    -2.268998     3.027014
 C    -5.196217    -3.323901    -0.185302
 H    -5.661027    -4.129934    -0.759562
 C    -5.312251    -3.307097     1.204266
 H    -5.871690    -4.094688     1.713802
 C    -1.796908     2.538929     0.504682
 C    -0.632044     3.239889     0.197301
 H     0.294089     2.682578     0.055201
 C    -3.016336     3.199389     0.720644
 C    -4.248070     2.422580     1.066882
 H    -4.446532     1.638259     0.321345
 H    -4.133385     1.913778     2.037362
 H    -5.125243     3.080390     1.128266
 C    -0.670151     4.626442     0.071170
 H     0.244525     5.169919    -0.176292
 C    -3.024365     4.591519     0.591332
 H    -3.965388     5.125477     0.749327
 C    -1.871164     5.305008     0.264761
 H    -1.912640     6.392127     0.167832
