  88
scf done:    -4137.190105
 C     0.913746    -3.477804     1.404641
 H     1.638052    -4.117347     0.888221
 H     1.197257    -3.255147     2.437651
 C    -0.477347    -3.623493     1.072383
 H    -0.750690    -4.360420     0.309199
 H    -1.234242    -3.512282     1.854536
 H    -0.188437    -1.217490     1.813756
Ir     0.234696    -1.739906     0.318365
 C     2.393668     0.468795     2.121804
 C     3.625333    -0.764020    -0.086632
 C     1.840492     1.331769    -0.598810
 C    -1.688031     0.108004    -2.059515
 C    -3.251017    -1.243036    -0.101117
 C    -1.783934     1.100565     0.651248
 P    -1.606587    -0.449640    -0.302926
 P     1.965853    -0.172010     0.449053
 C     0.655960    -2.392820    -1.430738
 O     0.877606    -2.759686    -2.499093
 H     3.212659     1.199780     2.003182
 H     2.834465    -0.409014     2.620339
 C     1.254838     1.038237     2.953735
 H     0.727612     1.829946     2.396320
 H     0.502779     0.247602     3.112013
 C     1.706385     1.597880     4.306762
 H     2.471025     2.374110     4.109677
 C     0.540996     2.268258     5.024430
 H     0.103040     3.080660     4.425610
 H     0.859511     2.695123     5.988065
 H    -0.259050     1.538579     5.232729
 C     2.342189     0.529753     5.190445
 H     2.635898     0.948230     6.165369
 H     3.244444     0.091966     4.737886
 H     1.630731    -0.291507     5.380457
 C     3.886111    -2.134055    -0.167276
 H     3.080867    -2.836445     0.056136
 C     4.657199     0.138544    -0.378349
 H     4.472226     1.215275    -0.338166
 C     5.147550    -2.602839    -0.526129
 H     5.349635    -3.673051    -0.591621
 C     5.920983    -0.314536    -0.739805
 H     6.723946     0.386763    -0.972395
 C     6.158688    -1.687994    -0.810753
Cl     7.728161    -2.258429    -1.265089
 C     1.720873     1.138323    -1.983127
 H     1.726595     0.123016    -2.389506
 C     1.850562     2.639850    -0.107174
 H     1.955068     2.830456     0.961722
 C     1.595955     2.214463    -2.851996
 H     1.512149     2.058992    -3.928769
 C     1.706252     3.730498    -0.965161
 H     1.695628     4.749711    -0.575293
 C     1.568159     3.511152    -2.332406
Cl     1.342571     4.851840    -3.402801
 H    -1.486133    -0.797123    -2.655798
 H    -0.807309     0.753501    -2.200791
 C    -2.975762     0.779087    -2.515958
 H    -3.778828     0.025158    -2.532610
 H    -3.295138     1.538947    -1.780375
 C    -2.880465     1.447109    -3.891510
 H    -2.427459     0.715967    -4.587567
 C    -4.271503     1.790913    -4.411348
 H    -4.905821     0.894569    -4.491055
 H    -4.224174     2.261599    -5.405484
 H    -4.777312     2.498204    -3.732902
 C    -1.993518     2.687192    -3.862308
 H    -1.895565     3.135934    -4.862524
 H    -0.977130     2.468286    -3.504731
 H    -2.420054     3.455669    -3.195847
 C    -3.354468    -2.610934    -0.375544
 H    -2.447900    -3.171848    -0.612545
 C    -4.412990    -0.532066     0.224471
 H    -4.361372     0.537880     0.436717
 C    -4.584229    -3.260577    -0.333426
 H    -4.662525    -4.327622    -0.547413
 C    -5.647693    -1.171549     0.284222
 H    -6.552220    -0.619172     0.543796
 C    -5.726250    -2.534775     0.001781
Cl    -7.259434    -3.334750     0.073174
 C    -1.427005     2.344305     0.122576
 H    -1.089131     2.435684    -0.910661
 C    -2.196098     1.032917     1.989879
 H    -2.458520     0.066102     2.426960
 C    -1.477623     3.496391     0.905199
 H    -1.187689     4.462820     0.489968
 C    -2.268790     2.175316     2.776159
 H    -2.592334     2.120319     3.816387
 C    -1.899363     3.404657     2.227993
Cl    -1.946304     4.828501     3.213790
