 104
scf done:    -2757.241429
 C    -0.799209    -3.556619    -1.136275
 H    -1.645165    -4.054905    -0.653131
 H    -0.894801    -3.486875    -2.223720
 C     0.508691    -3.664254    -0.555487
 H     0.640148    -4.249104     0.360179
 H     1.390823    -3.668994    -1.200605
 H     0.430668    -1.362258    -1.677459
Ir    -0.260032    -1.670216    -0.226136
 C    -1.706100     0.573629    -2.576758
 O    -3.397174    -0.647233    -1.012790
 O    -1.897297     1.189978     0.085656
 C     0.920007     0.735269     2.077569
 O     2.772128    -0.904203     1.178265
 O     1.843785     0.812288    -0.520933
 P     1.331334    -0.282442     0.625323
 P    -1.808487    -0.151433    -0.912960
 C    -0.989943    -2.158575     1.493690
 O    -1.356183    -2.463623     2.536853
 H    -2.669326     1.041647    -2.831708
 H    -1.582089    -0.303362    -3.231595
 C    -0.541583     1.546660    -2.706032
 H    -0.826588     2.496536    -2.224254
 H     0.328191     1.164966    -2.147011
 C    -0.099764     1.829322    -4.143499
 H    -0.995019     2.106536    -4.732034
 C     0.863776     3.010941    -4.161952
 H     0.396332     3.917269    -3.746120
 H     1.199794     3.242347    -5.184650
 H     1.758434     2.792781    -3.555175
 C     0.537182     0.603472    -4.789400
 H     0.841550     0.812663    -5.826596
 H    -0.145419    -0.259566    -4.815251
 H     1.435324     0.295797    -4.228323
 C    -3.945205    -1.472627    -0.063607
 C    -4.046297    -1.056824     1.261693
 H    -3.666123    -0.071310     1.540192
 C    -4.410395    -2.724827    -0.459461
 H    -4.309284    -3.023732    -1.503779
 C    -4.600918    -1.902208     2.228639
 C    -4.626917    -1.482535     3.668279
 H    -4.861999    -0.413182     3.774248
 H    -5.363603    -2.058200     4.246091
 H    -3.637631    -1.649177     4.126106
 C    -4.982234    -3.559517     0.495647
 H    -5.353078    -4.543785     0.199669
 C    -5.073636    -3.155624     1.827343
 H    -5.513269    -3.826820     2.569458
 C    -2.587107     2.354650    -0.115891
 C    -3.857112     2.394675    -0.690111
 H    -4.332107     1.464267    -1.004852
 C    -1.974352     3.530736     0.327641
 H    -0.988930     3.475037     0.792915
 C    -4.523037     3.617148    -0.851459
 C    -5.882659     3.644731    -1.487559
 H    -5.827475     3.358607    -2.550374
 H    -6.565504     2.933295    -0.998186
 H    -6.333992     4.644958    -1.432317
 C    -2.637632     4.742263     0.175373
 H    -2.163106     5.663220     0.522687
 C    -3.900720     4.789725    -0.415040
 H    -4.412785     5.747992    -0.531698
 H     0.323059     0.060714     2.715189
 H     0.197234     1.463194     1.673675
 C     2.030551     1.385823     2.890578
 H     2.716156     0.599055     3.241736
 H     2.633759     2.053213     2.256334
 C     1.520639     2.191921     4.088060
 H     0.922966     1.513160     4.725999
 C     2.701224     2.695146     4.910804
 H     3.339642     1.864057     5.248612
 H     2.365891     3.248158     5.801865
 H     3.329453     3.375073     4.311249
 C     0.624071     3.350563     3.662423
 H     0.313998     3.952019     4.530852
 H    -0.293803     3.006567     3.162181
 H     1.158958     4.017700     2.965020
 C     3.456134    -1.889248     0.516900
 C     3.575642    -1.894049    -0.871644
 H     3.096197    -1.106058    -1.455366
 C     4.052424    -2.887562     1.287109
 H     3.938772    -2.858878     2.371969
 C     4.280779    -2.916156    -1.517645
 C     4.360557    -2.930620    -3.016606
 H     3.365379    -3.101041    -3.458827
 H     4.725008    -1.968003    -3.407518
 H     5.030387    -3.722719    -3.378905
 C     4.765993    -3.895275     0.647975
 H     5.235834    -4.683037     1.241793
 C     4.876854    -3.915158    -0.742794
 H     5.432118    -4.718441    -1.233477
 C     2.621282     1.913828    -0.277111
 C     3.989843     1.780687    -0.057072
 H     4.435910     0.784271    -0.068885
 C     2.013913     3.170182    -0.285809
 H     0.944153     3.243202    -0.485679
 C     4.774988     2.909464     0.205019
 C     6.245312     2.755551     0.464823
 H     6.427006     2.106526     1.335853
 H     6.752881     2.289803    -0.394512
 H     6.725100     3.724968     0.657519
 C     2.792825     4.294227    -0.030656
 H     2.329202     5.283667    -0.028411
 C     4.158680     4.165713     0.222557
 H     4.759207     5.055388     0.428108
