  86
scf done:    -2597.189915
 C     0.148952     0.406590    -3.574688
 H    -0.536128    -0.274051    -4.089398
 H    -0.140277     1.459393    -3.645203
 C     1.541874     0.074232    -3.489415
 H     1.900055    -0.851651    -3.950451
 H     2.270967     0.889213    -3.523301
 H     0.990281     1.385421    -1.339164
Ir     0.599482    -0.191259    -1.552059
 O    -2.646359    -0.390257    -1.486423
 C    -1.838161    -0.243336     1.104363
 C    -1.887873     2.081265    -0.627786
 O     1.648765    -0.045596     1.701238
 C     2.378073    -2.301891     0.636183
 C     3.783556     0.085641     0.068203
 P     2.074318    -0.564203     0.161542
 P    -1.418284     0.324584    -0.581019
 C     0.136850    -2.038601    -1.853930
 O    -0.164355    -3.132228    -2.020360
 C    -3.871713    -0.684641    -0.944441
 C    -4.071100    -1.954042    -0.406833
 H    -3.244814    -2.667750    -0.443168
 C    -4.895756     0.263157    -0.926769
 H    -4.726777     1.252649    -1.352526
 C    -5.288267    -2.296291     0.188577
 C    -5.466621    -3.650480     0.810757
 H    -4.825957    -3.755701     1.701526
 H    -6.507028    -3.819102     1.121790
 H    -5.183566    -4.452786     0.112202
 C    -6.115517    -0.078027    -0.347682
 H    -6.925977     0.654801    -0.329230
 C    -6.309805    -1.340057     0.211261
 H    -7.269698    -1.589594     0.670813
 C    -1.205698    -1.400373     1.569672
 C    -2.840983     0.349179     1.882963
 C    -2.545445    -1.350445     3.574607
 C    -3.186499    -0.199645     3.114461
 C    -1.557710    -1.954511     2.797680
 H    -0.430939    -1.872112     0.961668
 H    -1.053315    -2.858835     3.146467
 H    -2.821162    -1.779813     4.541098
 H    -3.969389     0.269372     3.714824
 H    -3.361945     1.237403     1.521630
 C    -2.420200     2.600303    -1.815171
 C    -1.593583     2.943921     0.432082
 C    -2.386652     4.822273    -0.867308
 C    -1.846392     4.309062     0.310627
 C    -2.672247     3.964659    -1.930620
 H    -2.633821     1.925993    -2.647896
 H    -3.091103     4.361977    -2.858337
 H    -2.584261     5.892998    -0.959462
 H    -1.614546     4.971183     1.148366
 H    -1.162666     2.555590     1.356080
 C     1.296430     1.215763     2.063746
 C     1.732820     2.354484     1.386068
 H     2.350952     2.252843     0.493478
 C     0.490918     1.337384     3.201034
 H     0.136874     0.432644     3.697839
 C     1.387583     3.631572     1.844315
 C     1.816966     4.841122     1.068184
 H     2.845748     4.735488     0.693532
 H     1.162780     4.982700     0.191304
 H     1.762201     5.754213     1.677796
 C     0.159628     2.605013     3.665184
 H    -0.463488     2.703312     4.557339
 C     0.608335     3.747152     2.999192
 H     0.342619     4.738611     3.374979
 C     2.143976    -2.789164     1.925793
 C     2.840863    -3.171740    -0.358667
 C     2.828968    -4.998788     1.219532
 C     3.069736    -4.512381    -0.066121
 C     2.366238    -4.136490     2.211089
 H     1.784266    -2.108118     2.698344
 H     2.177723    -4.513256     3.219590
 H     3.001253    -6.053522     1.446654
 H     3.431470    -5.183758    -0.848267
 H     3.016046    -2.793159    -1.370077
 C     4.283016     0.553426    -1.147846
 C     4.594385     0.104771     1.210386
 C     6.393945     1.057002    -0.088971
 C     5.894294     0.592581     1.130032
 C     5.589854     1.035512    -1.226278
 H     3.629609     0.538764    -2.022362
 H     5.978085     1.400451    -2.180166
 H     7.416071     1.438987    -0.148922
 H     6.524225     0.611730     2.022640
 H     4.198338    -0.257582     2.162215
