  86
scf done:    -2993.895288
 C    -0.894595     0.853532    -3.245324
 H    -1.370164     0.089415    -3.868761
 H    -1.527927     1.729665    -3.078150
 C     0.531911     1.008571    -3.317155
 H     1.086935     0.354587    -3.999370
 H     0.974318     2.003847    -3.215558
 H    -0.148043     1.704715    -1.000940
Ir    -0.022026     0.135383    -1.421231
 C    -1.885574     1.245254     1.335311
 C    -3.505947     0.114569    -0.786965
 C    -2.172439    -1.563986     0.987424
 C     1.816199    -0.746818     1.565728
 C     3.424276    -0.506943    -0.756656
 C     2.389546     1.838268     0.500961
 P     1.870061     0.158089    -0.037377
 P    -1.859812    -0.029359     0.018272
 C     0.191457    -1.668116    -2.042199
 O     0.357574    -2.728201    -2.459280
 C    -1.518323     0.935015     2.646559
 H    -1.320792    -0.105157     2.912255
 C    -2.094864     2.601224     0.994597
 O    -2.402607     2.847027    -0.287421
 C    -2.443168     4.165518    -0.758001
 H    -3.259944     4.742489    -0.290666
 H    -2.624908     4.102255    -1.837765
 H    -1.484868     4.683820    -0.583447
 C    -1.370776     1.929891     3.613381
 H    -1.073056     1.661321     4.628784
 C    -1.964625     3.598863     1.966887
 H    -2.136765     4.644117     1.709211
 C    -1.602329     3.257569     3.270321
 H    -1.496932     4.046371     4.019052
 C    -4.584347     0.804081    -0.223071
 H    -4.456986     1.345905     0.717123
 C    -3.695958    -0.568639    -1.992288
 H    -2.852733    -1.098388    -2.441308
 C    -5.827785     0.816879    -0.849146
 H    -6.677375     1.355734    -0.425620
 C    -4.935122    -0.573014    -2.625478
 H    -5.096708    -1.102657    -3.565981
 C    -5.986367     0.125214    -2.044105
 F    -7.173870     0.135956    -2.647340
 C    -1.328153    -2.664498     0.847612
 H    -0.459751    -2.587788     0.193532
 C    -3.289180    -1.670018     1.831289
 H    -3.971268    -0.824447     1.944330
 C    -1.580896    -3.851724     1.534062
 H    -0.933994    -4.724446     1.432323
 C    -3.547532    -2.841399     2.530860
 H    -4.410428    -2.937364     3.192247
 C    -2.684456    -3.922236     2.370080
 F    -2.928802    -5.049841     3.033830
 C     1.730612    -0.113256     2.805679
 H     1.744711     0.976827     2.851648
 C     1.811836    -2.157737     1.529722
 O     1.874167    -2.708243     0.301485
 C     2.116805    -4.080074     0.149723
 H     3.065273    -4.373494     0.630590
 H     2.178635    -4.261576    -0.929854
 H     1.297704    -4.691461     0.565200
 C     1.634109    -0.849029     3.987959
 H     1.566187    -0.330767     4.946712
 C     1.740918    -2.898337     2.710356
 H     1.747356    -3.988123     2.680190
 C     1.642853    -2.238558     3.935603
 H     1.576531    -2.825560     4.854617
 C     3.561857    -0.566167    -2.145044
 H     2.729846    -0.233443    -2.768811
 C     4.483778    -0.942152     0.050511
 H     4.389760    -0.904746     1.138859
 C     4.731964    -1.048652    -2.727439
 H     4.852102    -1.103448    -3.810874
 C     5.656198    -1.431109    -0.516334
 H     6.489339    -1.778652     0.097462
 C     5.763485    -1.477623    -1.902950
 F     6.882365    -1.948689    -2.449270
 C     3.707180     2.296650     0.394467
 H     4.480418     1.652582    -0.026969
 C     1.421446     2.701210     1.031687
 H     0.385120     2.370792     1.101238
 C     4.053345     3.581779     0.809666
 H     5.075841     3.952973     0.719972
 C     1.755483     3.977457     1.468545
 H     1.003208     4.644869     1.892445
 C     3.073197     4.404349     1.347389
 F     3.399466     5.630822     1.751001
