  98
scf done:    -2754.263165
 C    -0.854533     3.186655    -1.511948
 H    -1.513132     3.237255    -2.386285
 H    -1.241586     3.738847    -0.649343
 C     0.568147     3.133370    -1.725103
 H     0.948850     3.131299    -2.751952
 H     1.231447     3.633942    -1.013461
 H     0.074009     1.924786     0.449359
Ir    -0.126565     1.225540    -1.009485
 C    -0.980629    -0.422291     1.885259
 C    -3.249508     1.038336     0.712453
 C    -2.385887    -1.483148    -0.432740
 C     1.747086    -1.761106    -0.369476
 C     3.156348     0.215579    -1.830187
 C     2.722427     0.678259     1.027809
 P     1.845954     0.080850    -0.499955
 P    -1.708381     0.090359     0.272416
 C    -0.512000     0.490810    -2.732554
 O    -0.802349     0.048628    -3.757704
 C    -0.397455    -1.684344     2.034860
 H    -0.485750    -2.419691     1.234631
 C    -0.839366     0.498793     2.946469
 O    -1.393875     1.714625     2.766093
 C    -1.380717     2.650556     3.807183
 H    -1.894833     2.267198     4.705548
 H    -1.914416     3.534518     3.436350
 H    -0.353548     2.946456     4.082584
 C     0.308773    -2.037512     3.184244
 H     0.752256    -3.032207     3.260216
 C    -0.138625     0.147346     4.104776
 H    -0.033314     0.860612     4.922373
 C     0.437219    -1.117643     4.217861
 H     0.985881    -1.376923     5.126329
 H    -2.903782     2.067721     0.878377
 H    -3.641562     0.659966     1.666673
 C    -4.313528     0.980308    -0.346542
 C    -5.595448     0.517807    -0.029177
 H    -5.805559     0.180363     0.989359
 C    -4.054718     1.379068    -1.665010
 H    -3.057547     1.744079    -1.920723
 C    -6.593823     0.453165    -0.997931
 H    -7.585766     0.083346    -0.727203
 C    -5.048210     1.301303    -2.638506
 H    -4.823794     1.609404    -3.662768
 C    -6.322507     0.839383    -2.309213
 H    -7.102004     0.782376    -3.073009
 H    -1.547804    -2.197529    -0.440311
 H    -2.566848    -1.239696    -1.490459
 C    -3.623627    -2.099332     0.157777
 C    -3.802802    -2.277663     1.535619
 H    -3.023012    -1.960604     2.230150
 C    -4.646924    -2.518198    -0.701647
 H    -4.534505    -2.362311    -1.777866
 C    -4.973682    -2.846508     2.034401
 H    -5.094432    -2.970516     3.113567
 C    -5.813484    -3.093503    -0.206937
 H    -6.600255    -3.402151    -0.899542
 C    -5.984548    -3.256772     1.166799
 H    -6.902148    -3.701041     1.559945
 C     0.857831    -2.368643    -1.260104
 H     0.268315    -1.724667    -1.915256
 C     2.517792    -2.598675     0.464296
 O     3.410829    -2.012115     1.278716
 C     4.289045    -2.796714     2.035072
 H     3.754068    -3.399726     2.789602
 H     4.960615    -2.098727     2.550600
 H     4.891260    -3.460877     1.392747
 C     0.693908    -3.751129    -1.325991
 H    -0.011604    -4.187043    -2.035943
 C     2.336933    -3.987071     0.425784
 H     2.917664    -4.632766     1.084266
 C     1.428854    -4.557381    -0.463143
 H     1.305382    -5.642928    -0.479861
 H     3.425282     1.281435    -1.876683
 H     2.621223    -0.016672    -2.763031
 C     4.341930    -0.680471    -1.646837
 C     4.311035    -1.996078    -2.131752
 H     3.437052    -2.339336    -2.690383
 C     5.481427    -0.267406    -0.943433
 H     5.547246     0.757973    -0.573877
 C     5.367497    -2.872924    -1.901033
 H     5.315046    -3.893658    -2.287509
 C     6.541440    -1.141234    -0.710827
 H     7.419733    -0.791736    -0.162396
 C     6.486092    -2.451800    -1.182547
 H     7.317507    -3.137903    -1.003318
 H     3.724421     0.232833     1.041966
 H     2.162443     0.243986     1.869335
 C     2.780140     2.172490     1.140586
 C     1.857374     2.857198     1.939825
 H     1.110267     2.279678     2.483800
 C     3.736925     2.928080     0.452544
 H     4.480984     2.425851    -0.168072
 C     1.873178     4.245649     2.032860
 H     1.134546     4.756432     2.655953
 C     3.759580     4.318949     0.542083
 H     4.514307     4.884386    -0.009685
 C     2.822495     4.985201     1.328541
 H     2.833714     6.075546     1.395055
