  82
scf done:    -2145.011819
 C     1.619703    -3.134737     0.001701
 H     2.199738    -3.450130    -0.872791
 H     2.230679    -3.032879     0.904469
 C     0.254780    -3.585967     0.124018
 H    -0.156597    -4.225933    -0.664240
 H    -0.142175    -3.823734     1.115930
 H     0.417154    -1.350258     1.315903
Ir     0.296379    -1.477304    -0.309315
 C     1.426071     1.471122     1.217562
 C     3.442735     0.124886    -0.385441
 C     1.352457     1.635628    -1.666728
 C    -2.108039     1.020902    -1.032899
 C    -3.315034    -1.443048    -0.383615
 C    -2.081213     0.058821     1.777318
 P    -1.793910    -0.464834     0.034300
 P     1.629190     0.443188    -0.289072
 C     0.227209    -1.715308    -2.202195
 O     0.214829    -1.866230    -3.346055
 C     0.762009     2.699851     1.196847
 H     0.438101     3.119048     0.242886
 C     1.806950     0.943812     2.472597
 O     2.460218    -0.231857     2.454793
 C     2.560871    -0.987766     3.629316
 H     3.232982    -0.516301     4.367571
 H     2.978173    -1.960029     3.338777
 H     1.570643    -1.146666     4.089168
 C     0.475187     3.396906     2.371519
 H    -0.035054     4.360555     2.324323
 C     1.500362     1.627070     3.652578
 H     1.786184     1.210710     4.618845
 C     0.839620     2.853981     3.597388
 H     0.614748     3.384060     4.525922
 H     3.990012     1.071629    -0.240290
 H     3.670776    -0.519020     0.475498
 C     3.845353    -0.560195    -1.684185
 H     3.657819     0.109331    -2.541333
 H     3.193789    -1.436791    -1.834138
 C     5.303423    -0.992199    -1.688462
 H     5.979682    -0.132435    -1.554201
 H     5.506222    -1.702624    -0.871265
 H     5.574160    -1.485483    -2.634500
 H     1.332796     1.011917    -2.576099
 H     0.317038     1.996691    -1.562347
 C     2.325913     2.795168    -1.834339
 H     3.323980     2.405822    -2.094242
 H     2.453906     3.325542    -0.876077
 C     1.864778     3.772832    -2.905418
 H     1.752736     3.270842    -3.879707
 H     0.883946     4.205678    -2.650083
 H     2.577998     4.601367    -3.034200
 C    -2.003133     0.777185    -2.408337
 H    -1.794173    -0.240384    -2.745987
 C    -2.360303     2.348860    -0.626794
 O    -2.495592     2.591318     0.692936
 C    -2.797284     3.881425     1.136567
 H    -2.014005     4.608660     0.859907
 H    -2.854269     3.826974     2.231052
 H    -3.765020     4.235485     0.739697
 C    -2.117675     1.783734    -3.361952
 H    -2.022220     1.545430    -4.422881
 C    -2.454203     3.372358    -1.581717
 H    -2.634401     4.399565    -1.265271
 C    -2.330959     3.091603    -2.939746
 H    -2.406537     3.905087    -3.665123
 H    -4.175280    -0.950280     0.103742
 H    -3.466066    -1.324546    -1.468997
 C    -3.248075    -2.924847    -0.044409
 H    -3.083237    -3.061948     1.035985
 H    -2.355615    -3.349559    -0.529098
 C    -4.499147    -3.675164    -0.473812
 H    -5.399390    -3.283802     0.027528
 H    -4.664117    -3.586432    -1.559949
 H    -4.425063    -4.747274    -0.235635
 H    -1.290173     0.793867     1.992462
 H    -3.037680     0.597444     1.836057
 C    -2.030980    -1.073601     2.794859
 H    -1.169457    -1.723566     2.570094
 H    -2.930915    -1.703758     2.701910
 C    -1.922979    -0.545603     4.217519
 H    -1.005332     0.052044     4.342302
 H    -2.774300     0.106234     4.473009
 H    -1.898642    -1.365186     4.952434
