  98
scf done:    -3151.098283
 C     0.100403    -4.052168     0.925788
 H     0.564602    -4.726745     0.197572
 H     0.602755    -4.057669     1.898112
 C    -1.326160    -3.873784     0.869574
 H    -1.886968    -4.407460     0.096550
 H    -1.893384    -3.739258     1.794486
 H    -0.353803    -1.708610     1.812777
Ir    -0.347350    -2.068558     0.210861
 O     1.231418     0.664193     1.129322
 C     3.125527    -1.287773     0.919791
 C     1.999308     0.054267    -1.410599
 O    -1.104121     0.888682    -1.077398
 C    -3.474336    -0.373080    -0.658968
 C    -1.945984     0.761365     1.532757
 P    -1.745872    -0.246334    -0.009432
 P     1.517488    -0.709801     0.210481
 C    -0.378857    -2.560573    -1.641208
 O    -0.415019    -2.832500    -2.758144
 C     1.892186     1.045860     2.264563
 C     2.748943     2.144495     2.200694
 H     2.899461     2.634186     1.239248
 C     1.666901     0.386533     3.472140
 H     0.988453    -0.468885     3.501810
 C     3.400424     2.609028     3.344987
 C     4.318997     3.794306     3.266138
 H     4.368884     4.196959     2.244636
 H     3.982044     4.602819     3.933967
 H     5.341559     3.526328     3.576142
 C     2.321435     0.843556     4.615680
 H     2.155051     0.335343     5.568608
 C     3.177326     1.940608     4.556740
 H     3.679265     2.286263     5.464343
 H     3.724663    -0.402101     1.181960
 H     2.867673    -1.796066     1.862729
 C     3.898300    -2.190158     0.000344
 C     3.331658    -3.356775    -0.531833
 H     2.306801    -3.619843    -0.263269
 C     5.217311    -1.876177    -0.349939
 H     5.687785    -0.984668     0.073191
 C     4.050919    -4.174345    -1.398849
 H     3.614044    -5.082234    -1.818750
 C     5.952365    -2.686417    -1.212233
 H     6.982119    -2.448058    -1.484208
 C     5.354299    -3.826965    -1.732140
 F     6.046899    -4.605594    -2.561311
 H     2.634327    -0.693709    -1.911790
 H     1.059444     0.131955    -1.971786
 C     2.660893     1.390777    -1.300543
 C     1.877187     2.552681    -1.249741
 H     0.792155     2.466374    -1.331865
 C     4.049674     1.519371    -1.189488
 H     4.676896     0.627623    -1.252395
 C     2.458653     3.804382    -1.071289
 H     1.855329     4.713001    -1.025847
 C     4.647251     2.764288    -1.000992
 H     5.729078     2.873085    -0.905863
 C     3.839339     3.891643    -0.932605
 F     4.400780     5.083532    -0.718820
 C    -1.684763     1.385198    -2.213162
 C    -2.255743     2.657318    -2.185073
 H    -2.263897     3.207012    -1.245565
 C    -1.644391     0.652689    -3.399872
 H    -1.188011    -0.339195    -3.415411
 C    -2.800113     3.223571    -3.339539
 C    -3.416692     4.592015    -3.294251
 H    -3.247447     5.077881    -2.323040
 H    -3.002450     5.242726    -4.079740
 H    -4.505159     4.540534    -3.459372
 C    -2.192117     1.212309    -4.553958
 H    -2.165077     0.646844    -5.488499
 C    -2.763363     2.481816    -4.528030
 H    -3.183625     2.906727    -5.443406
 H    -3.915561     0.636071    -0.658942
 H    -3.379169    -0.680915    -1.711151
 C    -4.303362    -1.354975     0.110152
 C    -4.235917    -2.721295    -0.189181
 H    -3.592081    -3.056735    -1.004402
 C    -5.136566    -0.948659     1.158656
 H    -5.225338     0.112888     1.400696
 C    -4.967323    -3.656574     0.534381
 H    -4.917341    -4.722590     0.306346
 C    -5.875683    -1.870550     1.896272
 H    -6.530688    -1.559233     2.711690
 C    -5.776200    -3.217987     1.575800
 F    -6.478600    -4.107491     2.275223
 H    -2.748341     0.260235     2.097706
 H    -1.011429     0.608441     2.085527
 C    -2.206959     2.217470     1.315202
 C    -1.124754     3.093265     1.140161
 H    -0.108875     2.698997     1.198059
 C    -3.501888     2.741542     1.231419
 H    -4.363117     2.088150     1.386823
 C    -1.326401     4.442963     0.870458
 H    -0.488339     5.127589     0.727401
 C    -3.722828     4.089427     0.952866
 H    -4.730397     4.501783     0.877530
 C    -2.627627     4.921543     0.764789
 F    -2.829754     6.205768     0.464907
