 100
scf done:    -2456.449144
 C     1.095425    -3.424765     1.182783
 H     1.787707    -4.029785     0.586727
 H     1.458779    -3.233123     2.197038
 C    -0.316416    -3.590401     0.960036
 H    -0.637721    -4.307296     0.196316
 H    -1.008751    -3.523972     1.804711
 H    -0.016980    -1.206815     1.762155
Ir     0.294493    -1.668507     0.219333
 C     2.529823     0.528845     1.922812
 C     3.621901    -0.594872    -0.414072
 C     1.760303     1.477114    -0.714531
 C    -1.840728     0.214186    -1.928854
 C    -3.222372    -1.233061     0.094051
 C    -1.753660     1.125020     0.809679
 P    -1.615801    -0.393213    -0.200180
 P     1.995088    -0.060274     0.261123
 C     0.583787    -2.247370    -1.579513
 O     0.723207    -2.571733    -2.676144
 H     3.325651     1.279449     1.773381
 H     3.018869    -0.357781     2.356567
 C     1.441931     1.047463     2.849853
 H     0.868284     1.851338     2.359841
 H     0.711357     0.240596     3.025300
 C     1.974954     1.560257     4.191252
 H     2.726268     2.344817     3.976129
 C     0.853796     2.203248     4.998536
 H     0.378393     3.022418     4.438712
 H     1.227126     2.609432     5.951661
 H     0.068908     1.465147     5.232161
 C     2.662656     0.464551     4.998789
 H     3.018803     0.850037     5.966779
 H     3.532577     0.042087     4.474252
 H     1.962821    -0.362715     5.204873
 C     3.911151    -1.952634    -0.558892
 H     3.143243    -2.683460    -0.298430
 C     4.610200     0.340486    -0.751112
 H     4.403079     1.410292    -0.660223
 C     5.157505    -2.366647    -1.025486
 H     5.362376    -3.435691    -1.130975
 C     5.850726    -0.078401    -1.217196
 H     6.607388     0.667774    -1.476799
 C     6.147453    -1.440521    -1.365673
 C     7.477527    -1.881830    -1.902011
 H     7.518258    -1.763167    -2.997668
 H     8.299790    -1.283679    -1.481322
 H     7.672559    -2.939939    -1.677446
 C     1.800832     2.767157    -0.183008
 H     1.986394     2.922158     0.880692
 C     1.532293     1.334294    -2.091674
 H     1.511574     0.333366    -2.532243
 C     1.589096     3.880518    -0.998543
 H     1.612061     4.880021    -0.555068
 C     1.341647     2.445346    -2.901873
 H     1.179983     2.306282    -3.974671
 C     1.349132     3.743553    -2.367029
 C     1.092253     4.932521    -3.244569
 H     1.737195     4.918951    -4.136738
 H     0.049064     4.938773    -3.601574
 H     1.269289     5.876016    -2.709725
 H    -1.668608    -0.669092    -2.565890
 H    -0.986532     0.883029    -2.116339
 C    -3.173468     0.868154    -2.262327
 H    -3.963443     0.101917    -2.213965
 H    -3.435544     1.615912    -1.492552
 C    -3.214773     1.547935    -3.634229
 H    -2.824272     0.827003    -4.377184
 C    -4.651246     1.885441    -4.016681
 H    -5.283681     0.984556    -4.041557
 H    -4.703669     2.363575    -5.007295
 H    -5.094818     2.583122    -3.286572
 C    -2.337128     2.794591    -3.678520
 H    -2.344243     3.253431    -4.679658
 H    -1.290436     2.574578    -3.421974
 H    -2.702436     3.550383    -2.962574
 C    -3.320968    -2.590952    -0.226335
 H    -2.423965    -3.121062    -0.553751
 C    -4.374101    -0.565137     0.527342
 H    -4.330060     0.498003     0.773513
 C    -4.535872    -3.260914    -0.119300
 H    -4.588294    -4.321996    -0.379276
 C    -5.583463    -1.244471     0.645836
 H    -6.470113    -0.703722     0.989233
 C    -5.688191    -2.603330     0.326662
 C    -6.985665    -3.339430     0.488107
 H    -7.848518    -2.666637     0.378392
 H    -7.084171    -4.149611    -0.249048
 H    -7.053903    -3.799114     1.488482
 C    -1.447308     2.389740     0.301014
 H    -1.151222     2.514032    -0.741924
 C    -2.091440     1.018250     2.166333
 H    -2.304362     0.034602     2.592969
 C    -1.494619     3.515847     1.121830
 H    -1.239484     4.491740     0.699214
 C    -2.154799     2.146299     2.973878
 H    -2.426070     2.037220     4.027536
 C    -1.860453     3.420095     2.466718
 C    -1.958784     4.638473     3.336879
 H    -2.999409     4.999820     3.391625
 H    -1.636323     4.426473     4.367181
 H    -1.345283     5.463644     2.947553
