 110
scf done:    -2911.471701
 C     0.359503    -4.039816     0.873347
 H     0.888857    -4.673662     0.153052
 H     0.842392    -4.011204     1.855208
 C    -1.075263    -3.966306     0.789361
 H    -1.582944    -4.533446     0.003466
 H    -1.670240    -3.874728     1.701970
 H    -0.284044    -1.742312     1.758086
Ir    -0.218721    -2.092796     0.155220
 O     1.182124     0.722971     1.134750
 C     3.186330    -1.118107     0.910496
 C     1.998153     0.205824    -1.405401
 O    -1.178908     0.802736    -1.145914
 C    -3.451575    -0.631060    -0.742769
 C    -2.022755     0.615475     1.457922
 P    -1.742294    -0.376828    -0.080080
 P     1.554228    -0.617526     0.194973
 C    -0.177170    -2.576656    -1.697894
 O    -0.168631    -2.846430    -2.816320
 C     1.802072     1.099867     2.292353
 C     2.624133     2.226551     2.277251
 H     2.777350     2.750336     1.332539
 C     1.578264     0.394178     3.474823
 H     0.929756    -0.484517     3.461573
 C     3.243774     2.668035     3.449426
 C     4.108642     3.895337     3.432373
 H     4.439485     4.135902     2.411835
 H     3.556487     4.769910     3.814827
 H     4.998554     3.770800     4.067322
 C     2.200354     0.829598     4.643328
 H     2.037931     0.282361     5.575138
 C     3.025367     1.952071     4.633698
 H     3.508519     2.278634     5.558433
 H     3.720340    -0.208354     1.224717
 H     2.945560    -1.688233     1.822042
 C     4.034198    -1.922189    -0.033809
 C     3.558261    -3.094568    -0.633790
 H     2.553083    -3.447481    -0.396442
 C     5.328215    -1.489332    -0.344392
 H     5.713079    -0.584901     0.136839
 C     4.359725    -3.790449    -1.535486
 H     3.976573    -4.698808    -2.006987
 C     6.147804    -2.180466    -1.242486
 C     7.542424    -1.703931    -1.529600
 H     7.632997    -0.615748    -1.396735
 H     8.269111    -2.177989    -0.848726
 H     7.849146    -1.950416    -2.556506
 C     5.640306    -3.337409    -1.843613
 H     6.257335    -3.889577    -2.557895
 H     2.680870    -0.492601    -1.915376
 H     1.057337     0.238005    -1.969323
 C     2.576906     1.577577    -1.263051
 C     1.726111     2.690155    -1.214085
 H     0.648587     2.544645    -1.312163
 C     3.953406     1.776208    -1.127395
 H     4.619107     0.911517    -1.187590
 C     2.255053     3.963386    -1.028076
 H     1.586068     4.827255    -0.998891
 C     4.499567     3.048310    -0.921686
 C     5.978270     3.219316    -0.723014
 H     6.550412     2.477006    -1.299115
 H     6.315581     4.221329    -1.025011
 H     6.249661     3.087644     0.338336
 C     3.630235     4.143812    -0.875318
 H     4.035435     5.148593    -0.726038
 C    -1.790540     1.243858    -2.286445
 C    -2.502858     2.443028    -2.263449
 H    -2.584099     2.987973    -1.323159
 C    -1.651450     0.524404    -3.474431
 H    -1.085775    -0.409451    -3.483002
 C    -3.098367     2.940275    -3.425174
 C    -3.888748     4.216440    -3.383274
 H    -3.679973     4.783863    -2.465254
 H    -3.663174     4.859407    -4.247371
 H    -4.971648     4.009075    -3.408298
 C    -2.243266     1.019268    -4.635478
 H    -2.137675     0.463650    -5.570391
 C    -2.960022     2.212967    -4.614525
 H    -3.416418     2.588961    -5.534059
 H    -3.966072     0.342759    -0.743907
 H    -3.322841    -0.930974    -1.793679
 C    -4.211613    -1.673811     0.018053
 C    -4.068304    -3.026399    -0.305486
 H    -3.417415    -3.313347    -1.133812
 C    -5.048242    -1.326109     1.084410
 H    -5.183457    -0.270496     1.335830
 C    -4.738596    -3.998466     0.430842
 H    -4.614701    -5.053409     0.174834
 C    -5.730486    -2.288187     1.835165
 C    -6.645624    -1.885062     2.955277
 H    -6.416774    -0.873614     3.320651
 H    -7.698253    -1.887049     2.626272
 H    -6.570606    -2.579747     3.805036
 C    -5.558073    -3.634933     1.496437
 H    -6.075817    -4.406473     2.073091
 H    -2.791943     0.058904     2.016946
 H    -1.082334     0.529807     2.015249
 C    -2.381925     2.050329     1.237416
 C    -1.359887     2.997670     1.085218
 H    -0.319558     2.674836     1.151920
 C    -3.710067     2.476566     1.136663
 H    -4.517266     1.751405     1.271384
 C    -1.673174     4.329898     0.837519
 H    -0.869093     5.061833     0.727135
 C    -4.042663     3.810141     0.870254
 C    -5.476344     4.224773     0.707340
 H    -5.790919     4.136922    -0.346425
 H    -6.151015     3.592423     1.302471
 H    -5.631897     5.270868     1.008356
 C    -3.003155     4.735247     0.724486
 H    -3.239248     5.784497     0.526189
