  64
scf done:    -1833.691804
 C    -3.506938    -0.677129    -0.948985
 H    -4.247835    -0.839343    -0.160383
 H    -3.741196     0.171260    -1.597423
 C    -2.802778    -1.803821    -1.493931
 H    -3.036869    -2.802272    -1.108842
 H    -2.517504    -1.798252    -2.549747
 H    -1.210998     0.191254    -1.637012
Ir    -1.468411    -0.630930    -0.248641
 C    -0.511567     2.777588    -0.339802
 O    -2.701476     2.063775     1.141282
 O    -0.318712     1.703882     2.013926
 C     1.887427    -0.839301     0.808975
 O     1.090044    -2.903060    -0.557551
 O     1.347386    -0.722781    -1.908538
 P     0.707324    -1.299961    -0.504411
 P    -1.253487     1.448690     0.663562
 C    -1.872732    -1.660509     1.327932
 O    -2.134020    -2.289533     2.253020
 H    -0.615714     3.733940     0.198243
 H    -1.134210     2.825825    -1.247205
 C     0.948152     2.503852    -0.673779
 H     1.521740     2.500857     0.267644
 H     1.040908     1.495296    -1.109507
 C     1.594170     3.493272    -1.645554
 H     1.472523     4.512937    -1.232847
 C     3.087435     3.201023    -1.748075
 H     3.577902     3.257941    -0.763385
 H     3.594929     3.909501    -2.420891
 H     3.254093     2.185199    -2.144647
 C     0.939861     3.452324    -3.022015
 H     1.437279     4.143719    -3.719778
 H    -0.123753     3.732117    -2.986239
 H     1.001440     2.436916    -3.447708
 C    -2.828377     3.343627     1.720831
 H    -1.983145     3.574013     2.390178
 H    -2.899465     4.127922     0.948699
 H    -3.757522     3.350421     2.308069
 C    -0.472374     0.855167     3.126840
 H    -1.508477     0.861288     3.505320
 H    -0.198976    -0.184031     2.881630
 H     0.197696     1.221546     3.917016
 H     1.492341    -1.355939     1.701832
 H     1.701435     0.232352     0.974051
 C     3.367994    -1.134250     0.637800
 H     3.500644    -2.202237     0.400541
 H     3.764741    -0.566505    -0.220718
 C     4.207732    -0.782108     1.869665
 H     3.799520    -1.355077     2.723864
 C     5.654786    -1.214332     1.663913
 H     5.725765    -2.290094     1.439907
 H     6.266060    -1.014392     2.557526
 H     6.110163    -0.667501     0.821162
 C     4.126120     0.701318     2.216295
 H     4.758120     0.940446     3.085395
 H     3.100558     1.019516     2.457372
 H     4.475494     1.318668     1.370855
 C     0.271832    -3.806308    -1.270811
 H    -0.791096    -3.534879    -1.168644
 H     0.532475    -3.816053    -2.342789
 H     0.440747    -4.809147    -0.854668
 C     2.503439    -1.227664    -2.537675
 H     3.343310    -0.523449    -2.424628
 H     2.799661    -2.206184    -2.130298
 H     2.286478    -1.341703    -3.610709
