  62
scf done:    -1759.013145
 C    -1.184135    -3.366480    -0.868763
 H    -1.599972    -3.947324    -0.038504
 H    -1.912147    -3.166491    -1.661481
 C     0.198860    -3.561113    -1.226520
 H     0.794543    -4.282648    -0.657297
 H     0.485214    -3.502289    -2.281267
 H    -0.382332    -1.112996    -1.816579
Ir    -0.042030    -1.639154    -0.288678
 C    -3.295183    -0.425563    -0.161163
 C    -1.672771     0.482979     2.061027
 C    -1.334762     1.669418    -0.494617
 C     2.501748     0.544602     0.881189
 C     3.426441    -1.614351    -0.801549
 C     2.113763     0.602495    -1.993727
 P     1.978960    -0.520813    -0.556466
 P    -1.548986     0.027369     0.290655
 C     0.323082    -2.249278     1.481138
 O     0.545057    -2.574373     2.564271
 H    -3.249759    -0.668306    -1.234020
 H    -3.481623    -1.375154     0.363694
 C    -4.348185     0.594367     0.137263
 C    -4.990540     0.625084     1.381173
 H    -4.752819    -0.134811     2.130222
 C    -4.687845     1.569048    -0.809775
 H    -4.201819     1.545291    -1.790138
 C    -5.931674     1.612008     1.664236
 H    -6.426540     1.626658     2.638530
 C    -5.632127     2.565187    -0.544988
 C    -6.001409     3.574386    -1.593721
 H    -5.200260     3.697727    -2.336498
 H    -6.908478     3.262065    -2.137739
 H    -6.212362     4.558372    -1.149590
 C    -6.247391     2.578159     0.712572
 H    -6.986277     3.350295     0.944064
 H    -0.690722     0.852475     2.391282
 H    -2.436560     1.253449     2.244440
 H    -1.907255    -0.416170     2.649176
 H    -2.135463     2.371247    -0.217456
 H    -0.365680     2.082328    -0.178076
 H    -1.313588     1.541894    -1.586340
 H     1.674307     1.256389     1.028533
 H     2.493603    -0.130579     1.751653
 C     3.812500     1.252436     0.745362
 C     5.004522     0.648692     1.163209
 H     4.973966    -0.335558     1.637777
 C     3.880338     2.520819     0.155097
 H     2.952946     3.006490    -0.164601
 C     6.223510     1.296882     0.979931
 H     7.148285     0.816351     1.308753
 C     5.094038     3.187731    -0.034485
 C     5.131932     4.561332    -0.639688
 H     6.023677     4.699643    -1.268608
 H     4.243489     4.756010    -1.257370
 H     5.163894     5.336152     0.144472
 C     6.270643     2.553398     0.381896
 H     7.232590     3.053543     0.239899
 H     3.521008    -2.281229     0.067665
 H     3.224226    -2.240940    -1.682083
 H     4.362633    -1.054104    -0.945715
 H     1.342286     1.381932    -1.924951
 H     3.107922     1.068420    -2.063731
 H     1.913217     0.009961    -2.897488
