 110
scf done:    -2387.521480
 C     0.239956    -3.440225    -1.814026
 H     0.788124    -3.449790    -2.762148
 H     0.714886    -4.045817    -1.035315
 C    -1.198162    -3.352451    -1.844098
 H    -1.702012    -3.296911    -2.814795
 H    -1.777576    -3.895554    -1.090493
 H    -0.440839    -2.207024     0.337720
Ir    -0.376315    -1.488708    -1.144892
 C     2.285630    -1.471791     1.084875
 C     2.986514    -0.571845    -1.600884
 C     1.595719     1.220511     0.204216
 C    -2.846436     0.999681    -1.551763
 C    -3.688380    -1.250714     0.009505
 C    -1.957520     0.776742     1.180767
 P    -2.180134    -0.250843    -0.338911
 P     1.605990    -0.532781    -0.370497
 C    -0.305226    -0.666847    -2.863595
 O    -0.250651    -0.141179    -3.887916
 H     1.528130    -1.363509     1.875970
 H     2.246736    -2.523150     0.763752
 C     3.648837    -1.092138     1.567102
 C     4.782547    -1.783765     1.127652
 H     4.665397    -2.649433     0.470446
 C     3.825352    -0.002206     2.430310
 H     2.944051     0.527877     2.803215
 C     6.055149    -1.364519     1.510175
 H     6.935002    -1.906814     1.155062
 C     5.092500     0.432813     2.824330
 C     5.254698     1.614991     3.735661
 H     4.283526     1.976643     4.102227
 H     5.875062     1.364164     4.610061
 H     5.751217     2.450944     3.216919
 C     6.211834    -0.259410     2.342130
 H     7.214422     0.063947     2.635559
 H     3.322605    -1.623175    -1.609598
 H     2.524099    -0.409971    -2.587687
 C     4.163800     0.376142    -1.397370
 H     3.852643     1.406140    -1.642625
 H     4.468619     0.395674    -0.340261
 C     5.375762     0.003385    -2.238725
 H     5.100525    -0.010375    -3.309188
 H     5.676209    -1.031414    -1.991849
 C     6.562749     0.931430    -2.023396
 H     6.263223     1.966343    -2.267289
 H     6.815794     0.938328    -0.948164
 C     7.787487     0.547071    -2.837357
 H     8.628194     1.234691    -2.658828
 H     7.570784     0.560306    -3.917744
 H     8.130325    -0.469520    -2.585159
 H     0.971175     1.234283     1.111444
 H     2.607617     1.531107     0.508655
 C     1.019914     2.167692    -0.837869
 H     1.701696     2.235264    -1.703507
 H     0.086999     1.732306    -1.234363
 C     0.737937     3.563679    -0.301861
 H     1.662612     3.996388     0.120839
 H     0.033615     3.488656     0.548404
 C     0.164902     4.509452    -1.348264
 H     0.892783     4.622600    -2.170471
 H    -0.725605     4.044805    -1.808173
 C    -0.202944     5.875325    -0.792542
 H    -0.607045     6.536959    -1.573535
 H     0.672776     6.377218    -0.350669
 H    -0.965767     5.791690    -0.001362
 H    -1.970843     1.566438    -1.902271
 H    -3.192489     0.402046    -2.409323
 C    -3.913571     1.924089    -1.054351
 C    -5.270620     1.583300    -1.135754
 H    -5.564169     0.643775    -1.610746
 C    -3.571126     3.146714    -0.466882
 H    -2.516106     3.430936    -0.412894
 C    -6.242379     2.438870    -0.625441
 H    -7.297861     2.164405    -0.694989
 C    -4.533441     4.019790     0.050936
 C    -4.119144     5.328251     0.660268
 H    -3.328103     5.186440     1.413132
 H    -3.716550     6.011657    -0.104991
 H    -4.964779     5.833230     1.147566
 C    -5.878363     3.646046    -0.030884
 H    -6.648577     4.311674     0.367928
 H    -4.510373    -0.573408     0.297020
 H    -3.953708    -1.695511    -0.965314
 C    -3.511890    -2.356500     1.040405
 H    -2.565991    -2.887511     0.843046
 H    -3.410328    -1.916063     2.046611
 C    -4.666950    -3.347830     1.046499
 H    -4.755701    -3.803626     0.043331
 H    -5.618209    -2.810599     1.216931
 C    -4.513197    -4.448037     2.087153
 H    -3.557591    -4.973848     1.914424
 H    -4.423340    -3.989207     3.087988
 C    -5.657347    -5.448806     2.083901
 H    -5.517183    -6.230610     2.845816
 H    -5.746238    -5.949707     1.106391
 H    -6.621295    -4.954873     2.287572
 H    -1.366890     1.646677     0.847596
 H    -2.936850     1.173383     1.496142
 C    -1.234333     0.088791     2.329375
 H    -1.892950    -0.655430     2.804960
 H    -0.394209    -0.493706     1.917908
 C    -0.718673     1.058309     3.383769
 H    -1.562080     1.620642     3.823539
 H    -0.082169     1.820908     2.896308
 C     0.078032     0.379234     4.489293
 H    -0.571924    -0.340768     5.016480
 H     0.880079    -0.228731     4.033565
 C     0.685694     1.353005     5.485449
 H     1.248338     0.830890     6.273969
 H    -0.090492     1.961640     5.976560
 H     1.380316     2.049872     4.987588
