 114
scf done:    -2539.854657
 C     2.240363    -3.099476     0.731827
 H     3.009917    -3.369110    -0.000612
 H     2.631369    -3.009389     1.751007
 C     0.900770    -3.597198     0.548569
 H     0.683045    -4.233642    -0.316061
 H     0.321830    -3.868736     1.436701
 H     0.646453    -1.350689     1.756289
Ir     0.952280    -1.482678     0.143606
 C     2.291599     1.154796     2.177169
 C     4.133970    -0.196242     0.443247
 C     2.192226     1.883897    -0.610498
 C    -1.397574     1.140990     0.026566
 C    -2.094232    -1.157960    -1.699616
 C    -2.371273    -1.359471     1.301176
 P    -1.278008    -0.729745    -0.074898
 P     2.352100     0.378810     0.484945
 C     1.317570    -1.694579    -1.712021
 O     1.548665    -1.836303    -2.834147
 H     2.574556     0.341474     2.862117
 H     3.079405     1.920961     2.229383
 C     0.981882     1.752854     2.589388
 C     0.638523     3.060162     2.219208
 H     1.338190     3.661705     1.633768
 C     0.083086     1.029394     3.380999
 H     0.349308     0.013196     3.682162
 C    -0.584629     3.605141     2.600907
 H    -0.848983     4.618189     2.288789
 C    -1.131630     1.575345     3.807930
 C    -2.025024     0.813597     4.741633
 H    -1.884730    -0.271621     4.638817
 H    -1.801425     1.074385     5.789569
 H    -3.086242     1.043102     4.568558
 C    -1.466685     2.868442     3.387828
 H    -2.419071     3.307869     3.697394
 H     4.036913    -1.147756     0.997041
 C     5.211086     0.629851     1.152711
 H     4.919640     0.847715     2.190901
 H     5.344400     1.601817     0.651851
 C     6.545262    -0.115060     1.154581
 H     7.314733     0.497672     1.652145
 H     6.441657    -1.034806     1.758242
 C     6.988048    -0.489438    -0.254472
 H     7.935281    -1.051957    -0.223254
 H     7.193898     0.433671    -0.826936
 C     5.910975    -1.293233    -0.972158
 H     5.781159    -2.266608    -0.465964
 H     6.219280    -1.519188    -2.005782
 C     4.574839    -0.557918    -0.976715
 H     4.674837     0.363160    -1.577647
 H     3.806808    -1.173043    -1.466797
 H     1.295982     2.367570    -0.178735
 C     1.842260     1.545818    -2.060152
 H     0.995977     0.842696    -2.079756
 H     2.683362     1.017815    -2.539848
 C     1.505921     2.804201    -2.854190
 H     1.287723     2.539489    -3.901642
 H     0.580579     3.249808    -2.446484
 C     2.625023     3.835841    -2.784100
 H     2.343146     4.748917    -3.332854
 H     3.523311     3.434406    -3.287523
 C     2.970951     4.168289    -1.337984
 H     2.105821     4.664842    -0.861368
 H     3.805306     4.887193    -1.293796
 C     3.324279     2.910454    -0.548397
 H     4.241556     2.470076    -0.973616
 H     3.561315     3.176002     0.494093
 H    -1.432099     1.364098     1.102207
 H    -0.402354     1.450599    -0.308859
 C    -2.422266     1.928085    -0.731178
 C    -2.246494     2.173280    -2.100563
 H    -1.351663     1.801209    -2.605167
 C    -3.558005     2.456284    -0.108933
 H    -3.689466     2.308897     0.965750
 C    -3.207264     2.872118    -2.824320
 H    -3.063585     3.042149    -3.894258
 C    -4.533424     3.165008    -0.817981
 C    -5.729270     3.733504    -0.109767
 H    -6.027445     3.107820     0.744197
 H    -5.512237     4.741042     0.283201
 H    -6.592087     3.825764    -0.785127
 C    -4.351743     3.354044    -2.192265
 H    -5.107223     3.895194    -2.768414
 H    -1.559863    -0.468627    -2.382425
 C    -3.594488    -0.880473    -1.846696
 H    -3.866254     0.112287    -1.467146
 H    -4.154937    -1.616409    -1.244814
 C    -4.018348    -1.007760    -3.307986
 H    -5.099278    -0.813538    -3.402696
 H    -3.511435    -0.217751    -3.890918
 C    -3.668684    -2.375200    -3.883623
 H    -3.923841    -2.419669    -4.955157
 H    -4.288692    -3.142971    -3.385637
 C    -2.197500    -2.714081    -3.667976
 H    -1.566585    -2.038358    -4.273405
 H    -1.982645    -3.735586    -4.021736
 C    -1.800747    -2.576414    -2.202040
 H    -2.371757    -3.304167    -1.603327
 H    -0.744506    -2.833215    -2.057971
 H    -1.698284    -1.261348     2.172157
 C    -2.657739    -2.851274     1.113193
 H    -1.717114    -3.387552     0.922797
 H    -3.289111    -2.988918     0.219812
 C    -3.396337    -3.438917     2.309124
 H    -3.591782    -4.510333     2.140267
 H    -2.753088    -3.376305     3.205706
 C    -4.697098    -2.687798     2.562935
 H    -5.226693    -3.104708     3.435047
 H    -5.368641    -2.824280     1.695590
 C    -4.427094    -1.203216     2.769051
 H    -3.845569    -1.079696     3.697930
 H    -5.370660    -0.652983     2.920101
 C    -3.651451    -0.581641     1.607461
 H    -4.298940    -0.542718     0.717853
 H    -3.402506     0.459297     1.857898
