 110
scf done:    -2911.405760
 C    -1.069037    -3.012622     2.002233
 H    -1.460539    -2.877510     3.015634
 H    -1.777908    -3.485293     1.313601
 C     0.335187    -3.253274     1.824566
 H     0.981668    -3.295331     2.707866
 H     0.667915    -3.897105     1.005821
 H    -0.472467    -2.024117    -0.247448
Ir    -0.150773    -1.258309     1.155754
 C    -3.187744    -1.212465    -0.389189
 C    -2.969208     1.205187     1.126719
 C    -1.354598     0.856508    -1.304343
 C     2.029973     1.212603    -0.332414
 C     3.304289    -0.923203     1.100347
 C     2.154241    -1.476612    -1.541922
 P     1.792332    -0.581758     0.055127
 P    -1.909727    -0.034466     0.223951
 C     0.244460    -0.467925     2.848928
 O     0.521628    -0.043620     3.885628
 C    -3.292207    -1.564696    -1.737070
 H    -2.687270    -1.041651    -2.479555
 C    -3.981525    -1.920346     0.540496
 O    -3.861518    -1.557605     1.831900
 C    -4.448475    -2.341509     2.832711
 H    -5.550982    -2.319255     2.778250
 H    -4.130814    -1.910991     3.790554
 H    -4.101776    -3.387227     2.778610
 C    -4.146937    -2.577635    -2.171271
 H    -4.203166    -2.825788    -3.233019
 C    -4.833718    -2.943463     0.112787
 H    -5.439534    -3.491418     0.834521
 C    -4.914563    -3.268010    -1.240418
 H    -5.585605    -4.068374    -1.560885
 H    -3.798477     1.469393     0.454937
 H    -3.386882     0.628730     1.961833
 C    -2.281055     2.441338     1.618080
 C    -1.541491     2.426994     2.807095
 H    -1.456737     1.503992     3.382022
 C    -2.401735     3.647751     0.920497
 H    -2.994712     3.674285     0.003383
 C    -0.936976     3.591327     3.272635
 H    -0.368668     3.568054     4.205661
 C    -1.795374     4.825109     1.369459
 C    -1.897837     6.084611     0.559822
 H    -1.118742     6.104778    -0.221523
 H    -2.866463     6.154179     0.043970
 H    -1.767746     6.981827     1.182196
 C    -1.063176     4.783905     2.561203
 H    -0.590703     5.696023     2.937280
 H    -0.383151     1.273073    -1.011101
 H    -1.104577     0.056532    -2.021688
 C    -2.169492     1.949053    -1.932816
 C    -1.521626     3.144476    -2.277520
 H    -0.450578     3.247562    -2.082477
 C    -3.543216     1.844632    -2.170348
 H    -4.065929     0.921229    -1.908664
 C    -2.236272     4.199006    -2.834310
 H    -1.720976     5.126704    -3.095767
 C    -4.280748     2.901969    -2.718669
 C    -5.762117     2.761644    -2.921697
 H    -6.296400     2.778428    -1.957538
 H    -6.165118     3.576601    -3.539226
 H    -6.010505     1.806841    -3.409601
 C    -3.609707     4.083360    -3.048086
 H    -4.168292     4.919135    -3.478286
 C     1.363197     2.104153     0.513927
 H     0.706200     1.693216     1.284885
 C     2.860879     1.754026    -1.340042
 O     3.527807     0.892993    -2.128374
 C     4.447699     1.372939    -3.068639
 H     3.954143     1.964829    -3.859367
 H     4.915390     0.489503    -3.520787
 H     5.233510     1.980113    -2.590052
 C     1.487937     3.486395     0.387162
 H     0.941738     4.139933     1.067555
 C     2.969922     3.142711    -1.488682
 H     3.598098     3.560779    -2.275138
 C     2.288318     4.000104    -0.626689
 H     2.389177     5.080613    -0.757480
 H     3.049201    -0.501315     2.084053
 H     3.325889    -2.017321     1.219153
 C     4.597356    -0.369475     0.593000
 C     5.473596    -1.136963    -0.185905
 H     5.249155    -2.188515    -0.378717
 C     4.931297     0.964715     0.848230
 H     4.257862     1.570442     1.461471
 C     6.634331    -0.572185    -0.705116
 H     7.314260    -1.182456    -1.304907
 C     6.086270     1.553774     0.323994
 C     6.377847     3.001930     0.590715
 H     5.570529     3.640109     0.195753
 H     6.445677     3.203691     1.671313
 H     7.323136     3.318140     0.127441
 C     6.936410     0.766797    -0.459652
 H     7.848507     1.205612    -0.873907
 H     1.583827    -0.936784    -2.312031
 H     3.216617    -1.326660    -1.769593
 C     1.791212    -2.928901    -1.527017
 C     2.675204    -3.891795    -1.025364
 H     3.666876    -3.590938    -0.681167
 C     0.540346    -3.353210    -1.983317
 H    -0.151619    -2.613928    -2.395407
 C     2.299484    -5.230633    -0.962089
 H     2.997896    -5.973178    -0.568678
 C     0.133141    -4.688548    -1.905926
 C    -1.250544    -5.078727    -2.336049
 H    -2.005539    -4.633275    -1.667695
 H    -1.473201    -4.716355    -3.351827
 H    -1.386271    -6.169322    -2.325113
 C     1.032564    -5.625700    -1.387248
 H     0.736528    -6.675934    -1.318333
