  96
scf done:    -2802.306468
 C    -1.141491    -3.350047    -1.271568
 H    -1.608797    -4.012092    -0.533979
 H    -1.803066    -3.106829    -2.109515
 C     0.268354    -3.475754    -1.520917
 H     0.833731    -4.228958    -0.961696
 H     0.647379    -3.329601    -2.537064
 H    -0.334522    -1.012029    -1.965193
Ir    -0.118775    -1.639655    -0.459103
 C    -3.190727    -0.373395    -1.335792
 C    -2.998619    -0.683102     1.481682
 C    -1.487310     1.538004     0.322376
 C     1.990299     0.465953     1.332332
 C     3.457468    -1.268662    -0.459181
 C     2.015242     0.980258    -1.606029
 P     1.858505    -0.340965    -0.350651
 P    -1.929559    -0.221474     0.041165
 C     0.200627    -2.368895     1.275594
 O     0.443541    -2.783748     2.321998
 H    -2.713454    -0.008603    -2.252283
 H    -3.239413    -1.467607    -1.435964
 C    -4.566379     0.184232    -1.142990
 C    -5.542772    -0.572715    -0.479901
 H    -5.289952    -1.570388    -0.113115
 C    -4.925662     1.456356    -1.605998
 H    -4.191893     2.069562    -2.131955
 C    -6.825735    -0.077331    -0.268690
 H    -7.585769    -0.663601     0.250595
 C    -6.204964     1.967974    -1.407657
 H    -6.487638     2.958536    -1.768076
 C    -7.140158     1.193705    -0.732844
 F    -8.366461     1.676994    -0.534036
 C    -2.910096    -2.033731     1.854128
 H    -2.198485    -2.668785     1.325302
 C    -3.963635     0.137242     2.115591
 C    -4.255143     1.573820     1.784747
 H    -3.868306     1.883795     0.811392
 H    -3.819571     2.249022     2.538266
 H    -5.343132     1.735093     1.782159
 C    -3.710637    -2.581899     2.848696
 H    -3.611116    -3.637983     3.108490
 C    -4.742625    -0.433602     3.133821
 H    -5.483171     0.199412     3.630814
 C    -4.626832    -1.766508     3.506794
 H    -5.260613    -2.169301     4.300640
 C    -1.239134     1.906033     1.656039
 H    -1.383965     1.165711     2.447401
 C    -1.233926     2.469655    -0.706513
 C    -1.266461     2.120025    -2.165599
 H    -2.284414     2.120228    -2.581800
 H    -0.827403     1.126195    -2.340601
 H    -0.677348     2.845689    -2.741227
 C    -0.826175     3.188954     1.992423
 H    -0.642660     3.445971     3.038232
 C    -0.861839     3.771344    -0.338989
 H    -0.687232     4.501401    -1.133712
 C    -0.665091     4.141444     0.986159
 H    -0.367133     5.163518     1.231773
 H     1.150657     1.174159     1.385358
 H     1.718382    -0.369004     1.995432
 C     3.272749     1.081856     1.798766
 C     4.347399     0.270114     2.190601
 H     4.237915    -0.816133     2.168501
 C     3.433584     2.471224     1.880983
 H     2.596238     3.128353     1.633949
 C     5.558004     0.820875     2.597646
 H     6.399701     0.192132     2.893092
 C     4.637770     3.039939     2.288295
 H     4.768615     4.121635     2.350860
 C     5.692795     2.203430     2.628535
 F     6.852503     2.738234     3.010732
 C     3.368079    -2.630905    -0.145198
 H     2.379960    -3.049252     0.048177
 C     4.727620    -0.709481    -0.748908
 C     4.980930     0.728216    -1.102337
 H     4.435240     1.423117    -0.454102
 H     4.676969     0.952735    -2.136260
 H     6.052643     0.951227    -1.010226
 C     4.489326    -3.452665    -0.095261
 H     4.381275    -4.509257     0.159587
 C     5.839448    -1.562824    -0.708610
 H     6.822663    -1.138923    -0.929904
 C     5.737474    -2.911759    -0.384331
 H     6.634174    -3.535822    -0.358842
 C     1.929508     2.323614    -1.232416
 H     1.762018     2.587081    -0.190787
 C     2.201724     0.646486    -2.967688
 C     2.336975    -0.770337    -3.436244
 H     1.613765    -1.426182    -2.930198
 H     3.340193    -1.167150    -3.210870
 H     2.181353    -0.839684    -4.521669
 C     2.055088     3.345586    -2.168609
 H     1.997320     4.387473    -1.845365
 C     2.303738     1.689540    -3.895043
 H     2.445465     1.437416    -4.949534
 C     2.244392     3.026828    -3.509616
 H     2.343039     3.816135    -4.258750
