  96
scf done:    -2802.326985
 C    -0.659490    -3.704797    -1.545550
 H    -1.150731    -4.457840    -0.920211
 H    -1.210008    -3.475771    -2.463824
 C     0.778626    -3.656171    -1.578426
 H     1.336771    -4.384235    -0.979035
 H     1.283479    -3.386672    -2.511077
 H    -0.022788    -1.270488    -1.988576
Ir     0.031824    -1.956352    -0.496436
 C    -2.252436     0.396203    -1.566935
 C    -3.408736    -1.427862     0.340235
 C    -1.690582     0.593231     1.367129
 C     2.307451    -0.042558     1.525287
 C     3.338496    -0.730179    -1.033715
 C     1.285716     1.269971    -0.892572
 P     1.729400    -0.379899    -0.227635
 P    -1.824693    -0.583041    -0.041104
 C     0.183285    -2.841579     1.190102
 O     0.325777    -3.373444     2.201946
 H    -1.325617     0.932688    -1.819208
 H    -2.346696    -0.405278    -2.316926
 C    -3.435867     1.315855    -1.609611
 C    -4.752270     0.842469    -1.515735
 H    -4.939852    -0.228140    -1.418329
 C    -3.240827     2.694519    -1.773059
 H    -2.220920     3.075882    -1.869581
 C    -5.834992     1.717642    -1.543035
 H    -6.861397     1.354455    -1.465462
 C    -4.312775     3.582732    -1.804829
 H    -4.164383     4.656826    -1.930962
 C    -5.601908     3.080307    -1.679378
 F    -6.635893     3.921655    -1.702062
 C    -3.753649    -2.546750    -0.430060
 H    -3.040642    -2.934155    -1.160121
 C    -4.304730    -0.955906     1.301188
 H    -4.040936    -0.085792     1.906955
 C    -4.992346    -3.152519    -0.253021
 H    -5.264285    -4.020464    -0.858681
 C    -5.551307    -1.565085     1.497467
 C    -6.494674    -1.030402     2.535646
 H    -6.062331    -1.115584     3.545350
 H    -6.707549     0.036725     2.365298
 H    -7.450568    -1.572476     2.531562
 C    -5.885676    -2.663747     0.701832
 H    -6.856255    -3.149140     0.836460
 C    -2.283250     1.860857     1.406619
 H    -2.880416     2.220239     0.570679
 C    -0.965931     0.157360     2.482281
 H    -0.518993    -0.838127     2.466957
 C    -2.114520     2.672146     2.527460
 H    -2.578137     3.661540     2.549065
 C    -0.785014     0.959635     3.613082
 C     0.045724     0.474920     4.765443
 H     0.014853    -0.620852     4.848556
 H     1.103407     0.761487     4.635121
 H    -0.293412     0.905082     5.718740
 C    -1.365819     2.233648     3.616514
 H    -1.239194     2.882139     4.487990
 H     1.519110     0.552090     2.007420
 H     2.292748    -1.031632     2.006462
 C     3.660454     0.584001     1.635259
 C     4.797452    -0.229687     1.728791
 H     4.676185    -1.312785     1.804670
 C     3.845586     1.968278     1.533051
 H     2.978903     2.627828     1.461347
 C     6.079243     0.306347     1.679584
 H     6.966650    -0.326868     1.727475
 C     5.122250     2.523275     1.482626
 H     5.274780     3.599775     1.386951
 C     6.223731     1.680231     1.539743
 F     7.450092     2.200520     1.443711
 C     3.764083    -2.059467    -1.098147
 H     3.073770    -2.852850    -0.804488
 C     4.212847     0.291392    -1.422647
 H     3.889753     1.333236    -1.362441
 C     5.054282    -2.351822    -1.536496
 H     5.386185    -3.391484    -1.592407
 C     5.512080     0.013119    -1.854532
 C     6.458242     1.128251    -2.193912
 H     5.923561     1.999739    -2.598534
 H     6.998296     1.466820    -1.293896
 H     7.210786     0.812180    -2.930755
 C     5.919433    -1.325743    -1.907914
 H     6.930992    -1.565201    -2.248087
 C     1.323748     1.452777    -2.281815
 H     1.686125     0.647879    -2.925535
 C     0.785643     2.299967    -0.089069
 H     0.708177     2.167812     0.992143
 C     0.899044     2.654291    -2.839769
 H     0.939130     2.792808    -3.922836
 C     0.354134     3.514515    -0.636843
 C    -0.194322     4.604004     0.237287
 H     0.055365     4.438441     1.294093
 H     0.190415     5.590285    -0.062752
 H    -1.294057     4.645684     0.166909
 C     0.425016     3.680694    -2.024342
 H     0.101999     4.625172    -2.471515
