 108
scf done:    -2959.456368
 C    -0.199770    -1.933590    -2.985332
 H     0.307136    -1.471141    -3.839160
 H     0.231939    -2.899702    -2.701748
 C    -1.618279    -1.738715    -2.828573
 H    -2.148287    -1.125647    -3.565721
 H    -2.230304    -2.556549    -2.437631
 H    -0.593946    -2.005943    -0.435345
Ir    -0.555374    -0.617053    -1.320763
 C     2.248099    -2.148648    -0.023363
 C     2.828419     0.247053    -1.664130
 C     1.803468     0.606295     1.117867
 C    -1.881678     1.518320     1.355214
 C    -3.703751     0.624692    -0.845193
 C    -2.840814    -1.043373     1.448030
 P    -2.207657     0.133893     0.150328
 P     1.598812    -0.437329    -0.423434
 C    -0.501141     0.961814    -2.388748
 O    -0.460695     1.894877    -3.063669
 H     1.883289    -2.377197     0.987263
 H     1.672342    -2.783725    -0.710395
 C     3.709473    -2.449635    -0.144986
 C     4.242222    -2.857118    -1.376628
 H     3.578386    -2.972114    -2.238232
 C     4.576753    -2.363532     0.951113
 H     4.185853    -2.079415     1.928487
 C     5.599699    -3.131446    -1.527643
 H     6.018542    -3.446481    -2.484904
 C     5.935197    -2.634533     0.819399
 H     6.612795    -2.561394     1.671833
 C     6.433606    -3.006653    -0.423205
 F     7.734608    -3.264287    -0.555608
 H     3.247988    -0.636317    -2.165681
 H     2.210276     0.763098    -2.409525
 C     3.925537     1.138833    -1.167535
 C     5.181619     0.610858    -0.849228
 H     5.358299    -0.456621    -0.983391
 C     3.705147     2.526846    -1.026029
 C     2.411143     3.158168    -1.450102
 H     1.534256     2.715102    -0.952833
 H     2.242457     3.037326    -2.532411
 H     2.406633     4.233602    -1.231117
 C     6.203743     1.419329    -0.360132
 H     7.173625     0.979280    -0.117102
 C     4.737857     3.322452    -0.516572
 H     4.564637     4.395672    -0.398363
 C     5.976613     2.781278    -0.177654
 H     6.765631     3.427334     0.214640
 H     2.145854     1.587580     0.763909
 H     0.771097     0.743864     1.455382
 C     2.671266     0.137061     2.242048
 C     3.975595     0.627453     2.370980
 H     4.343843     1.350582     1.641114
 C     2.178180    -0.775979     3.198492
 C     0.749785    -1.243808     3.168696
 H     0.403080    -1.502422     2.156978
 H     0.074347    -0.453749     3.541203
 H     0.604923    -2.122855     3.811785
 C     4.807740     0.200463     3.401299
 H     5.824617     0.592740     3.475170
 C     3.031499    -1.203824     4.222201
 H     2.656388    -1.919741     4.958822
 C     4.338449    -0.730499     4.325652
 H     4.983371    -1.082609     5.134238
 H    -2.845699     1.770807     1.828932
 H    -1.287427     1.034685     2.147200
 C    -1.170868     2.757491     0.897017
 C    -0.169366     3.316805     1.703362
 H     0.102445     2.825386     2.641185
 C    -1.492737     3.419154    -0.294105
 H    -2.264734     3.019857    -0.951713
 C     0.496530     4.482377     1.338791
 H     1.285452     4.909263     1.960408
 C    -0.835749     4.584887    -0.679795
 H    -1.070969     5.085316    -1.620252
 C     0.154905     5.099762     0.143035
 F     0.818111     6.193409    -0.236793
 H    -3.347201     1.440591    -1.494497
 H    -3.814090    -0.234905    -1.518432
 C    -5.006696     0.975515    -0.189760
 C    -5.112748     2.112016     0.623999
 H    -4.247796     2.768339     0.743599
 C    -6.161255     0.195902    -0.427342
 C    -6.154913    -0.957475    -1.388272
 H    -5.394439    -1.709871    -1.136342
 H    -5.949687    -0.613927    -2.415563
 H    -7.129652    -1.462726    -1.394790
 C    -6.306858     2.449489     1.256692
 H    -6.357749     3.339727     1.887790
 C    -7.351412     0.548346     0.218869
 H    -8.242187    -0.060652     0.042532
 C    -7.430936     1.651158     1.065365
 H    -8.375016     1.896659     1.557373
 H    -1.923135    -1.489614     1.864054
 H    -3.284235    -0.425291     2.239058
 C    -3.801631    -2.124146     1.042998
 C    -3.416421    -3.086354     0.101990
 H    -2.417359    -3.014038    -0.332929
 C    -5.078003    -2.211280     1.639313
 C    -5.534072    -1.240766     2.691389
 H    -5.496621    -0.199286     2.337478
 H    -4.911201    -1.307148     3.598733
 H    -6.571300    -1.448198     2.986611
 C    -4.277125    -4.112700    -0.277895
 H    -3.954172    -4.848381    -1.018241
 C    -5.928042    -3.251677     1.245844
 H    -6.918949    -3.320172     1.703072
 C    -5.543874    -4.193642     0.295220
 H    -6.232221    -4.992048     0.007858
