  84
scf done:    -2645.180188
 C     0.582290    -3.751570     0.852608
 H     1.092425    -4.328017     0.074169
 H     1.133846    -3.712310     1.796783
 C    -0.853982    -3.717998     0.876354
 H    -1.412589    -4.274686     0.116624
 H    -1.376377    -3.651327     1.835022
 H    -0.129920    -1.480564     1.806058
Ir    -0.109412    -1.813713     0.199442
 C     1.545008     1.175950    -0.778740
 C     2.876375    -0.204119     1.424496
 C     3.010360    -1.292378    -1.222941
 C    -2.226173     0.368125    -1.531998
 C    -3.493265    -1.138724     0.580571
 C    -1.849902     1.148832     1.258010
 P    -1.897367    -0.332137     0.173254
 P     1.827681    -0.527515    -0.048405
 C    -0.209858    -2.297722    -1.645423
 O    -0.315052    -2.590714    -2.753855
 H     1.166379     0.979953    -1.793801
 H     0.698609     1.575589    -0.202073
 C     2.680560     2.146267    -0.784867
 C     2.813321     3.070110     0.259823
 H     2.055884     3.097756     1.047488
 C     3.662999     2.127586    -1.783855
 H     3.584447     1.415174    -2.607599
 C     3.896066     3.941903     0.321775
 H     4.006991     4.661431     1.134812
 C     4.755423     2.989289    -1.734261
 H     5.527051     2.979285    -2.506155
 C     4.860394     3.884691    -0.676393
 F     5.905200     4.710617    -0.622822
 C     2.407785    -0.534536     2.700143
 C     4.147918     0.379354     1.300017
 C     4.426900     0.334519     3.699836
 C     4.914288     0.646972     2.430408
 C     3.175016    -0.261446     3.832303
 H     1.434557    -1.024213     2.789916
 H     2.792858    -0.526565     4.820942
 H     5.030663     0.546953     4.585652
 H     5.899915     1.104329     2.316619
 H     4.548979     0.618329     0.313751
 C     4.056560    -2.099974    -0.759975
 C     2.794930    -1.198328    -2.604580
 C     4.671561    -2.657879    -3.030827
 C     3.621671    -1.870323    -3.501104
 C     4.880928    -2.774585    -1.658034
 H     4.227103    -2.204685     0.313521
 H     5.693808    -3.398469    -1.278641
 H     5.319715    -3.186401    -3.733634
 H     3.437922    -1.783186    -4.574578
 H     1.962309    -0.609010    -2.995978
 H    -1.251194     0.760744    -1.854540
 H    -2.423942    -0.518646    -2.153975
 C    -3.294475     1.401012    -1.682291
 C    -4.651916     1.051231    -1.702430
 H    -4.940070    -0.000849    -1.651942
 C    -2.958032     2.758974    -1.748195
 H    -1.905158     3.052065    -1.729564
 C    -5.643797     2.025935    -1.763036
 H    -6.703016     1.762842    -1.774392
 C    -3.937106     3.745983    -1.816035
 H    -3.680661     4.805674    -1.864540
 C    -5.272728     3.364754    -1.814639
 F    -6.218909     4.301485    -1.871615
 C    -3.927136    -2.171336    -0.264526
 C    -4.240673    -0.845287     1.724276
 C    -5.857698    -2.545377     1.136439
 C    -5.415578    -1.546926     1.999343
 C    -5.105519    -2.859144     0.002395
 H    -3.323725    -2.453299    -1.132047
 H    -5.432475    -3.655695    -0.670286
 H    -6.779867    -3.090210     1.351616
 H    -5.987951    -1.306583     2.898598
 H    -3.904766    -0.068066     2.412919
 C    -0.697804     1.396374     2.013057
 C    -2.915427     2.060433     1.339445
 C    -1.647487     3.444585     2.864853
 C    -2.810309     3.199192     2.134861
 C    -0.592480     2.536140     2.808088
 H     0.117086     0.672384     1.982908
 H     0.316781     2.703648     3.390961
 H    -1.569633     4.340063     3.486316
 H    -3.647210     3.899867     2.182427
 H    -3.839017     1.880841     0.787963
