  94
scf done:    -3222.933646
 C    -1.891483     3.440907    -1.257353
 H    -2.658721     3.430667    -2.037230
 H    -2.242610     3.840859    -0.301612
 C    -0.516278     3.617155    -1.619133
 H    -0.253211     3.746592    -2.673336
 H     0.155817     4.138382    -0.932567
 H    -0.493028     2.124506     0.447268
Ir    -0.847287     1.557253    -1.040715
 C    -2.752015     0.673132     1.843402
 O    -3.860306     0.377002    -0.639770
 O    -2.207122    -1.348363     0.316064
 C     1.657248    -0.816259    -1.978262
 O     2.526603     1.461297    -0.998804
 O     1.338845    -0.102740     0.695427
 P     1.162397     0.519042    -0.823495
 P    -2.363285     0.299583     0.089368
 C    -1.224447     0.990839    -2.845967
 O    -1.434577     0.662817    -3.924639
 H    -2.859247     1.767354     1.886859
 H    -3.731465     0.222151     2.064588
 C    -1.710207     0.174483     2.802859
 C    -1.839520    -1.095266     3.376900
 H    -2.706915    -1.711725     3.129648
 C    -0.590811     0.947829     3.123605
 H    -0.485317     1.938669     2.674017
 C    -0.873457    -1.563850     4.263014
 H    -0.990676    -2.548105     4.723714
 C     0.400530     0.482284     3.992862
 C     1.629117     1.297804     4.269716
 H     1.463308     2.364385     4.060440
 H     1.953595     1.200990     5.316196
 H     2.467321     0.958353     3.637538
 C     0.239117    -0.782867     4.567627
 H     0.999129    -1.161538     5.256393
 C    -5.016170    -0.139095    -0.112005
 C    -5.976792     0.746042     0.380008
 H    -5.770380     1.817553     0.350853
 C    -5.256038    -1.514668    -0.101240
 H    -4.506669    -2.199182    -0.499185
 C    -7.177120     0.261113     0.890790
 H    -7.944535     0.932962     1.279121
 C    -6.454779    -2.003360     0.412149
 H    -6.668484    -3.073469     0.431225
 C    -7.399902    -1.110984     0.903603
 F    -8.545795    -1.580085     1.394155
 C    -1.668391    -2.205562    -0.591471
 C    -0.852615    -3.230117    -0.106437
 H    -0.672998    -3.290394     0.967413
 C    -1.939103    -2.113015    -1.959053
 H    -2.605105    -1.333180    -2.330814
 C    -0.292716    -4.151307    -0.985188
 H     0.342119    -4.964697    -0.629172
 C    -1.363402    -3.023244    -2.844223
 H    -1.550032    -2.959834    -3.917533
 C    -0.545584    -4.030620    -2.348441
 F     0.003501    -4.903243    -3.190738
 H     0.856304    -1.564919    -1.883990
 H     1.533592    -0.349255    -2.969512
 C     3.013831    -1.438696    -1.824174
 C     4.166182    -0.777116    -2.257602
 H     4.081739     0.202166    -2.732203
 C     3.142343    -2.694347    -1.220415
 H     2.240096    -3.214181    -0.890604
 C     5.416757    -1.358870    -2.062503
 H     6.315388    -0.837972    -2.402399
 C     4.388218    -3.285932    -1.006353
 C     4.508933    -4.612867    -0.315230
 H     5.092553    -5.327721    -0.915938
 H     5.021008    -4.504534     0.654060
 H     3.521721    -5.055750    -0.122534
 C     5.529509    -2.596776    -1.436255
 H     6.517018    -3.040214    -1.280395
 C     2.632040     2.721680    -0.477144
 C     3.123258     3.730929    -1.304362
 H     3.379419     3.489347    -2.337123
 C     2.288912     2.999259     0.847147
 H     1.908288     2.202608     1.486418
 C     3.266703     5.024853    -0.813472
 H     3.645142     5.833452    -1.441103
 C     2.422506     4.295167     1.338374
 H     2.156445     4.540584     2.368159
 C     2.907702     5.293342     0.502729
 F     3.038036     6.533206     0.974070
 C     2.371263    -0.817545     1.246008
 C     3.707210    -0.426155     1.142220
 H     3.976831     0.462039     0.573521
 C     2.021938    -1.950485     1.978714
 H     0.965694    -2.196436     2.081834
 C     4.698174    -1.213886     1.720588
 H     5.752647    -0.952151     1.622515
 C     3.010366    -2.733447     2.565942
 H     2.763365    -3.631127     3.135461
 C     4.339697    -2.361824     2.414134
 F     5.296861    -3.136223     2.935190
