  96
scf done:    -2802.326592
 C    -0.628371    -3.748914    -1.219948
 H    -1.105715    -4.467055    -0.544555
 H    -1.191417    -3.580492    -2.143770
 C     0.809350    -3.695775    -1.272121
 H     1.377782    -4.384371    -0.636732
 H     1.301175    -3.482269    -2.226025
 H     0.003052    -1.341063    -1.818936
Ir     0.066963    -1.936140    -0.287820
 C    -2.243926     0.321762    -1.483737
 C    -3.361677    -1.367335     0.576846
 C    -1.641457     0.730127     1.411770
 C     2.387985     0.052397     1.592261
 C     3.344685    -0.726721    -0.972062
 C     1.301026     1.275982    -0.840277
 P     1.766111    -0.345223    -0.128025
 P    -1.793436    -0.546745     0.101406
 C     0.225772    -2.710300     1.451145
 O     0.367372    -3.175609     2.495268
 H    -1.333680     0.873687    -1.762859
 H    -2.301618    -0.527124    -2.183341
 C    -3.459500     1.192366    -1.600116
 C    -4.758486     0.675660    -1.495266
 H    -4.906736    -0.391161    -1.319653
 C    -3.314894     2.562111    -1.861899
 H    -2.309006     2.977175    -1.963870
 C    -5.873212     1.501545    -1.613015
 H    -6.886247     1.104489    -1.526955
 C    -4.418938     3.401520    -1.984626
 H    -4.308626     4.468461    -2.187191
 C    -5.690114     2.857885    -1.850143
 F    -6.755316     3.652267    -1.960988
 C    -3.698049    -2.572169    -0.052690
 H    -2.982330    -3.029102    -0.738919
 C    -4.270998    -0.805255     1.478222
 H    -4.032849     0.133900     1.981589
 C    -4.923944    -3.180368     0.193149
 H    -5.170615    -4.116178    -0.316493
 C    -5.491083    -1.428516     1.730408
 H    -6.189630    -0.970901     2.436581
 C    -5.843833    -2.621297     1.090955
 C    -7.147980    -3.303388     1.381890
 H    -7.563574    -3.779562     0.481571
 H    -7.015044    -4.096634     2.136534
 H    -7.894181    -2.598229     1.774884
 C    -2.138928     2.032937     1.314800
 H    -2.685505     2.348671     0.428169
 C    -0.973972     0.367040     2.590188
 H    -0.586820    -0.647591     2.700036
 C    -1.935014     2.952054     2.343423
 H    -2.323050     3.968666     2.232940
 C    -0.782972     1.283359     3.617849
 H    -0.253452     0.970774     4.522442
 C    -1.247744     2.601813     3.508757
 C    -1.027290     3.587087     4.618140
 H    -1.583956     3.293573     5.522787
 H     0.035988     3.641151     4.899007
 H    -1.356912     4.596110     4.334277
 H     1.597702     0.633820     2.088433
 H     2.414471    -0.926246     2.094151
 C     3.725693     0.718740     1.660687
 C     4.888918    -0.059219     1.737825
 H     4.802755    -1.146868     1.795210
 C     3.867925     2.109298     1.576948
 H     2.981541     2.743088     1.517759
 C     6.152976     0.519360     1.715067
 H     7.059883    -0.085485     1.765299
 C     5.126128     2.706535     1.552743
 H     5.243389     3.789632     1.485694
 C     6.255546     1.901040     1.615198
 F     7.463299     2.466317     1.584624
 C     3.778163    -2.054158    -0.999094
 H     3.109279    -2.834748    -0.630215
 C     4.203764     0.271572    -1.450726
 H     3.897393     1.319154    -1.418310
 C     5.043970    -2.375857    -1.484807
 H     5.366995    -3.420635    -1.492111
 C     5.460210    -0.057884    -1.944115
 H     6.118750     0.737065    -2.305332
 C     5.906129    -1.386257    -1.967259
 C     7.260539    -1.729798    -2.513445
 H     8.024559    -1.017744    -2.166481
 H     7.572103    -2.740911    -2.215799
 H     7.261366    -1.693540    -3.615527
 C     1.271378     1.410480    -2.237703
 H     1.613014     0.583760    -2.865582
 C     0.821216     2.335133    -0.067190
 H     0.782199     2.259063     1.020625
 C     0.798514     2.573287    -2.831883
 H     0.784550     2.649879    -3.922773
 C     0.344544     3.499733    -0.669569
 H    -0.035578     4.306385    -0.036869
 C     0.327966     3.645339    -2.058278
 C    -0.175804     4.899785    -2.709664
 H    -0.682772     5.554303    -1.986564
 H     0.652272     5.474705    -3.155641
 H    -0.883312     4.673851    -3.522762
