  80
scf done:    -2193.052694
 C    -1.253154    -3.397296    -0.109844
 H    -1.642396    -3.797422     0.832443
 H    -2.007500    -3.362134    -0.902840
 C     0.112390    -3.672779    -0.465536
 H     0.724593    -4.260600     0.227541
 H     0.359759    -3.852635    -1.515642
 H    -0.483894    -1.422285    -1.528896
Ir    -0.085538    -1.592609     0.056090
 C    -2.742041     0.258929    -1.136864
 C    -3.181803    -0.672465     1.588724
 C    -1.468279     1.666361     1.111117
 C     2.918080    -0.009466     0.956839
 C     3.069349    -2.031625    -1.228441
 C     2.088493     0.773740    -1.774807
 P     1.995657    -0.648898    -0.556199
 P    -1.815246    -0.046134     0.455243
 C     0.452159    -1.852581     1.868679
 O     0.823193    -2.012139     2.948222
 H    -2.028011     0.779019    -1.792312
 H    -2.851552    -0.750424    -1.558894
 C    -4.060917     0.963431    -1.089694
 C    -5.255100     0.230072    -1.088691
 H    -5.213787    -0.859715    -1.163659
 C    -4.149836     2.360769    -1.022606
 H    -3.238657     2.962420    -1.047856
 C    -6.494042     0.856465    -0.987881
 H    -7.425487     0.287542    -0.983264
 C    -5.379544     3.005470    -0.921006
 H    -5.453335     4.093071    -0.866119
 C    -6.540150     2.241733    -0.896019
 F    -7.720385     2.851452    -0.796263
 H    -3.759900    -1.312644     0.897936
 C    -2.670644    -1.566775     2.712828
 H    -3.524022    -1.967515     3.283045
 H    -2.089989    -2.411669     2.325519
 H    -2.031964    -1.018161     3.421264
 C    -4.117367     0.397043     2.150347
 H    -4.513105     1.078342     1.387399
 H    -4.978886    -0.089781     2.634882
 H    -3.616385     1.000895     2.922222
 H    -2.441843     2.172112     1.221071
 C    -0.794397     1.571699     2.475312
 H    -0.550615     2.577205     2.854238
 H    -1.425373     1.077679     3.226623
 H     0.143964     0.999063     2.405709
 C    -0.600315     2.458742     0.148004
 H    -1.063304     2.601880    -0.838804
 H    -0.379173     3.456276     0.560675
 H     0.352268     1.935920    -0.012905
 H     2.107312     0.294699     1.632595
 H     3.374026    -0.898793     1.418193
 C     3.898879     1.119127     0.843370
 C     5.282910     0.913795     0.777231
 H     5.682332    -0.100093     0.829478
 C     3.435849     2.443046     0.818935
 H     2.365300     2.639226     0.918216
 C     6.171469     1.977627     0.644652
 H     7.249899     1.817782     0.592295
 C     4.306814     3.519520     0.681288
 H     3.945691     4.549238     0.658098
 C     5.670162     3.271485     0.584720
 F     6.512878     4.294273     0.450550
 H     2.757746    -2.852317    -0.561094
 C     2.615291    -2.407949    -2.636381
 H     3.001057    -3.405012    -2.901964
 H     1.518779    -2.437355    -2.709023
 H     2.991916    -1.700662    -3.389994
 C     4.583748    -1.905328    -1.129316
 H     4.919057    -1.823750    -0.086543
 H     5.050962    -2.814409    -1.542543
 H     4.983989    -1.047472    -1.685642
 H     1.875178     1.635948    -1.122177
 C     3.447226     1.034784    -2.419609
 H     3.401688     1.978396    -2.987058
 H     4.256435     1.133466    -1.685249
 H     3.719176     0.243471    -3.132272
 C     0.985830     0.718116    -2.824534
 H     0.002815     0.561637    -2.363434
 H     0.968215     1.660203    -3.396040
 H     1.142973    -0.102843    -3.539081
