  60
scf done:    -2179.564226
 C    -4.345529     0.449063    -0.449748
 H    -4.871289     0.780058     0.451250
 H    -4.435655     1.148279    -1.285641
 C    -4.243541    -0.959629    -0.725055
 H    -4.700694    -1.672666    -0.031386
 H    -4.271987    -1.291241    -1.767496
 H    -2.125194     0.107066    -1.707598
Ir    -2.318911    -0.187834    -0.106770
 C    -0.005370     2.189284    -1.263608
 O    -1.739559     2.988851     0.765348
 O     0.153534     1.356872     1.370995
 C     0.389799    -1.991241     1.203343
 O    -0.742658    -3.170288    -0.856199
 O     0.566890    -1.020141    -1.379992
 P    -0.556019    -1.621121    -0.330154
 P    -0.991548     1.635998     0.210981
 C    -2.651551    -0.542910     1.758961
 O    -2.849595    -0.747912     2.869271
 H     0.017494     1.273522    -1.871833
 H    -0.616405     2.924503    -1.809497
 C     1.389409     2.670951    -1.008148
 C     1.745448     4.022236    -1.077280
 H     0.997016     4.765908    -1.362222
 C     2.381959     1.738449    -0.671867
 H     2.115039     0.681057    -0.630351
 C     3.043771     4.443296    -0.793455
 H     3.330068     5.495147    -0.848025
 C     3.680722     2.141670    -0.382891
 H     4.457470     1.420726    -0.120136
 C     3.995091     3.495213    -0.439835
 F     5.236966     3.889223    -0.161205
 C    -1.379679     4.325187     0.509792
 H    -0.336895     4.545344     0.788372
 H    -1.524624     4.587407    -0.551654
 H    -2.046201     4.959414     1.110786
 C     0.728715     2.352155     2.190833
 H     1.364754     3.045309     1.616741
 H    -0.049862     2.919538     2.724283
 H     1.356253     1.836144     2.930735
 H     0.371085    -1.041827     1.758107
 H    -0.229822    -2.717879     1.752587
 C     1.793405    -2.465444     1.004252
 C     2.073749    -3.779642     0.608930
 H     1.249587    -4.484485     0.479353
 C     2.860741    -1.570692     1.150549
 H     2.656339    -0.544055     1.464685
 C     3.378794    -4.187910     0.350222
 H     3.609011    -5.208824     0.039887
 C     4.172430    -1.962636     0.893729
 H     5.011527    -1.273532     1.007840
 C     4.413846    -3.270184     0.490093
 F     5.664786    -3.655208     0.240834
 C    -1.675918    -3.450612    -1.881757
 H    -2.570066    -2.815978    -1.774675
 H    -1.231709    -3.281382    -2.877027
 H    -1.959792    -4.508113    -1.792733
 C     1.526470    -1.785901    -2.085889
 H     2.518224    -1.692596    -1.617789
 H     1.251532    -2.849839    -2.113072
 H     1.573194    -1.396384    -3.113677
