 106
scf done:    -2983.301556
 C     0.803699    -3.306858     1.325443
 H     1.407991    -3.983631     0.714575
 H     1.223730    -3.117245     2.316617
 C    -0.608910    -3.254494     1.132097
 H    -1.069555    -3.884786     0.367719
 H    -1.264602    -3.040383     1.980330
 H     0.188881    -0.858640     1.818258
Ir     0.316116    -1.457715     0.302578
 C     2.579586     1.050315     1.470490
 O     3.504107    -1.405754     0.901794
 O     2.979761     0.041266    -1.115182
 C    -1.245313     1.610135    -0.909678
 O    -2.590472    -0.611199    -1.213343
 O    -2.341953     0.426551     1.152995
 P    -1.436891    -0.052657    -0.160849
 P     2.307285    -0.387278     0.346249
 C     0.578319    -2.245727    -1.440006
 O     0.811843    -2.719848    -2.456523
 H     2.550305     0.556558     2.452640
 H     3.601509     1.427489     1.322284
 C     1.571674     2.160751     1.434273
 C     1.728875     3.266089     0.586820
 H     2.585980     3.323733    -0.085990
 C     0.464849     2.119921     2.288596
 H     0.334563     1.257324     2.947143
 C     0.797254     4.299587     0.612464
 H     0.926506     5.158337    -0.050269
 C    -0.477106     3.154307     2.330090
 C    -1.659397     3.063999     3.249129
 H    -2.343046     2.267599     2.915019
 H    -1.350383     2.818359     4.276769
 H    -2.221621     4.007873     3.279370
 C    -0.294742     4.248366     1.478043
 H    -1.018061     5.067914     1.490041
 C     4.853354    -1.188182     0.791837
 C     5.478682    -1.394588    -0.440741
 H     4.867272    -1.700367    -1.289939
 C     5.591211    -0.826109     1.930219
 C     4.941217    -0.684425     3.274733
 H     4.681874     0.364351     3.493760
 H     4.017343    -1.275920     3.329682
 H     5.620222    -1.022065     4.070638
 C     6.847674    -1.189738    -0.569362
 H     7.329407    -1.341215    -1.537852
 C     6.969103    -0.629494     1.770768
 H     7.561605    -0.350215     2.646641
 C     7.595991    -0.793993     0.538866
 H     8.672133    -0.630660     0.448121
 C     3.447520     1.243899    -1.566713
 C     4.593662     1.831720    -1.029162
 H     5.147995     1.314737    -0.244729
 C     2.756392     1.838122    -2.635604
 C     1.602735     1.127614    -3.273019
 H     1.959561     0.409403    -4.029865
 H     1.042561     0.543142    -2.532243
 H     0.923385     1.832909    -3.771535
 C     5.028324     3.064953    -1.511197
 H     5.920349     3.526463    -1.081973
 C     3.212062     3.076421    -3.095333
 H     2.675017     3.561899    -3.914739
 C     4.327854     3.697658    -2.535436
 H     4.657657     4.668811    -2.910779
 H    -0.630434     2.178450    -0.198137
 H    -0.638437     1.454273    -1.811266
 C    -2.536031     2.299862    -1.221537
 C    -3.106886     2.211436    -2.496646
 H    -2.580388     1.670262    -3.285820
 C    -3.227145     2.994927    -0.225833
 H    -2.787138     3.059566     0.769568
 C    -4.340291     2.800782    -2.755027
 H    -4.778157     2.729945    -3.753799
 C    -4.473844     3.582101    -0.463461
 C    -5.208930     4.264530     0.653377
 H    -5.626770     3.521276     1.352837
 H    -4.540119     4.915857     1.236588
 H    -6.041786     4.876302     0.278836
 C    -5.023183     3.477821    -1.744892
 H    -5.995558     3.932125    -1.954211
 C    -2.802557    -1.923419    -1.551019
 C    -3.371061    -2.813791    -0.643341
 H    -3.618792    -2.468893     0.361190
 C    -2.474499    -2.315695    -2.856973
 C    -1.895844    -1.329050    -3.824262
 H    -2.651412    -0.584787    -4.122652
 H    -1.056763    -0.771973    -3.382332
 H    -1.531694    -1.832850    -4.729433
 C    -3.611981    -4.129850    -1.029178
 H    -4.055291    -4.827682    -0.315326
 C    -2.720060    -3.644331    -3.215188
 H    -2.459484    -3.972105    -4.225089
 C    -3.281275    -4.548912    -2.315955
 H    -3.460764    -5.581809    -2.622476
 C    -3.524860    -0.112708     1.581718
 C    -4.683171     0.042072     0.817057
 H    -4.621060     0.567229    -0.136220
 C    -3.546871    -0.770019     2.822249
 C    -2.307746    -0.871542     3.658335
 H    -1.420458    -1.053295     3.036256
 H    -2.127349     0.069947     4.203879
 H    -2.397611    -1.675238     4.402118
 C    -5.886558    -0.487936     1.274192
 H    -6.788972    -0.375080     0.669170
 C    -4.771270    -1.292520     3.253493
 H    -4.807473    -1.815537     4.213208
 C    -5.931374    -1.163115     2.492365
 H    -6.870597    -1.588158     2.853436
