 114
scf done:    -2839.648283
 C    -0.080757     1.198466    -3.454545
 H    -0.686598     0.696357    -4.217069
 H    -0.325874     2.260900    -3.350424
 C     1.285080     0.781507    -3.260973
 H     1.676005    -0.036843    -3.875722
 H     2.044812     1.532731    -3.029437
 H     0.391492     1.634344    -0.956719
Ir     0.082232     0.151427    -1.583948
 C    -2.795518     2.135518    -0.988425
 C    -3.265280    -0.616174    -1.679735
 C    -2.586132     0.031290     1.008133
 C     0.972114    -1.531351     1.553619
 C     2.837696    -1.710687    -0.775538
 C     2.559013     0.609883     1.045134
 P     1.574001    -0.618372     0.053406
 P    -2.065928     0.445851    -0.710816
 C    -0.253660    -1.544650    -2.386207
 O    -0.450655    -2.553236    -2.909648
 H    -2.652184     2.325075    -2.063974
 H    -3.875103     2.053746    -0.794412
 C    -2.215679     3.243327    -0.163489
 C    -2.850346     3.649616     1.016724
 H    -3.792798     3.180844     1.312119
 C    -1.017014     3.862873    -0.527694
 H    -0.527915     3.562300    -1.456772
 C    -2.275963     4.626500     1.821810
 H    -2.772994     4.930781     2.745837
 C    -0.413338     4.832354     0.280692
 C     0.907649     5.426874    -0.114642
 H     1.177461     6.278074     0.526135
 H     1.715392     4.679888    -0.038389
 H     0.893342     5.776476    -1.158518
 C    -1.059224     5.205104     1.464022
 H    -0.605845     5.962944     2.108885
 H    -3.096112    -0.303431    -2.722261
 H    -2.864353    -1.635912    -1.595508
 C    -4.722060    -0.559636    -1.328978
 C    -5.514669     0.479315    -1.836780
 H    -5.064385     1.198063    -2.525891
 C    -5.326864    -1.533476    -0.503039
 C    -4.577121    -2.741962    -0.021923
 H    -4.171811    -3.327112    -0.863305
 H    -5.234546    -3.405516     0.556187
 H    -3.721139    -2.491620     0.618994
 C    -6.858912     0.608582    -1.499826
 H    -7.448383     1.431740    -1.910104
 C    -6.678575    -1.386037    -0.170276
 H    -7.144894    -2.138868     0.471356
 C    -7.441950    -0.323258    -0.646039
 H    -8.494555    -0.237020    -0.366485
 H    -3.676276     0.195855     1.059699
 H    -2.441964    -1.060750     1.068669
 C    -1.910327     0.657107     2.197235
 C    -0.788289     1.480694     2.087173
 H    -0.388867     1.703810     1.096134
 C    -2.436194     0.381418     3.478610
 C    -3.651138    -0.484513     3.640117
 H    -4.530876    -0.047387     3.139227
 H    -3.902655    -0.621823     4.700802
 H    -3.502442    -1.479998     3.192244
 C    -0.181324     2.031930     3.213480
 H     0.682139     2.690801     3.094905
 C    -1.810588     0.934991     4.600126
 H    -2.218770     0.719783     5.591747
 C    -0.690682     1.755197     4.478025
 H    -0.225297     2.182190     5.369568
 H     1.863809    -1.918668     2.076203
 H     0.579339    -0.728215     2.197376
 C    -0.068226    -2.607136     1.443352
 C    -0.945507    -2.801127     2.521173
 H    -0.880480    -2.139300     3.388971
 C    -0.181132    -3.455631     0.340419
 H     0.488477    -3.326853    -0.510098
 C    -1.892155    -3.819651     2.486677
 H    -2.565528    -3.964366     3.335455
 C    -1.137925    -4.478434     0.280138
 C    -1.221424    -5.363165    -0.929540
 H    -0.387745    -6.084398    -0.948156
 H    -2.157486    -5.939193    -0.943405
 H    -1.158963    -4.773667    -1.856022
 C    -1.990992    -4.652769     1.372314
 H    -2.745776    -5.443362     1.346612
 H     2.268514    -2.595011    -1.104147
 H     3.064166    -1.155538    -1.694220
 C     4.088242    -2.119779    -0.058126
 C     4.022295    -3.006441     1.025444
 H     3.053860    -3.422132     1.314972
 C     5.352001    -1.660585    -0.492275
 C     5.504980    -0.791089    -1.706936
 H     4.914896     0.133939    -1.635426
 H     5.178275    -1.319945    -2.617444
 H     6.555035    -0.502906    -1.848204
 C     5.165417    -3.399905     1.716935
 H     5.083851    -4.090116     2.559819
 C     6.489806    -2.069573     0.212502
 H     7.467784    -1.710568    -0.119421
 C     6.407930    -2.918401     1.313418
 H     7.315611    -3.215018     1.844284
 H     1.791817     1.291202     1.443401
 H     2.951808     0.051227     1.904063
 C     3.659776     1.394173     0.393994
 C     3.385734     2.198429    -0.717945
 H     2.362671     2.218609    -1.097735
 C     4.966526     1.375092     0.927341
 C     5.308881     0.596473     2.165469
 H     5.057074    -0.470113     2.069193
 H     4.769892     0.986066     3.044886
 H     6.384116     0.661069     2.379857
 C     4.384030     2.947320    -1.335697
 H     4.144388     3.561085    -2.207391
 C     5.957473     2.132246     0.291302
 H     6.972803     2.112975     0.696949
 C     5.682120     2.906367    -0.833009
 H     6.479235     3.483345    -1.308000
