  88
scf done:    -3342.744387
 C    -1.845999    -2.364747     2.860725
 H    -2.469241    -2.036288     3.698320
 H    -2.356573    -3.050660     2.177853
 C    -0.432536    -2.506017     3.051072
 H    -0.001399    -2.278962     4.030860
 H     0.105927    -3.283474     2.503008
 H    -0.722900    -1.850513     0.615366
Ir    -0.819262    -0.761595     1.823060
 C    -4.184023    -0.255015     0.810254
 O    -2.675231     1.832793     0.604466
 O    -2.299706     0.049570    -1.117531
 C     2.072219     1.313242     1.705523
 O     2.399401    -1.206220     1.028749
 O     1.096843     0.263848    -0.661608
 P     1.168233    -0.093493     0.953386
 P    -2.427627     0.198814     0.537983
 C    -0.866211     0.420922     3.348263
 O    -0.874329     1.094274     4.277462
 H    -4.209423    -1.355451     0.806133
 H    -4.394129     0.056072     1.845720
 C    -5.147720     0.336754    -0.171213
 C    -5.707625     1.600826     0.047931
 H    -5.456848     2.148755     0.958661
 C    -5.467291    -0.338323    -1.354738
 H    -5.035242    -1.322562    -1.552272
 C    -6.569543     2.175858    -0.880578
 H    -7.013939     3.159216    -0.717305
 C    -6.326581     0.222764    -2.294696
 H    -6.582690    -0.297705    -3.219079
 C    -6.867669     1.477297    -2.044081
 F    -7.692575     2.021638    -2.937459
 C    -1.660093     2.748181     0.592205
 C    -1.035599     3.085899    -0.608125
 H    -1.355190     2.582492    -1.521576
 C    -1.295704     3.381050     1.780586
 H    -1.801407     3.109404     2.707706
 C    -0.039304     4.057485    -0.619941
 H     0.464428     4.350226    -1.542768
 C    -0.295570     4.350776     1.774707
 H     0.012606     4.856898     2.691070
 C     0.320089     4.674901     0.571973
 F     1.292644     5.587155     0.558668
 C    -1.807616    -1.033473    -1.782552
 C    -0.906964    -0.811694    -2.824455
 H    -0.608085     0.209444    -3.057819
 C    -2.195472    -2.338064    -1.467122
 H    -2.895911    -2.521111    -0.651661
 C    -0.377945    -1.883392    -3.536436
 H     0.342193    -1.728004    -4.341521
 C    -1.670023    -3.415739    -2.174793
 H    -1.949324    -4.442108    -1.931742
 C    -0.762664    -3.174971    -3.196518
 F    -0.228209    -4.211816    -3.848412
 H     1.368210     2.156248     1.624398
 H     2.125533     1.047171     2.774070
 C     3.418663     1.658740     1.144084
 C     4.542502     0.876772     1.437303
 H     4.442225     0.022954     2.109652
 C     3.571895     2.751681     0.283317
 H     2.714673     3.389523     0.062252
 C     5.778598     1.154167     0.862518
 H     6.660010     0.547972     1.079119
 C     4.800059     3.041001    -0.302069
 H     4.924464     3.884678    -0.982619
 C     5.888484     2.228506    -0.011937
 F     7.065843     2.489177    -0.577149
 C     2.267171    -2.531418     0.705440
 C     2.849780    -3.463763     1.563558
 H     3.340707    -3.111147     2.472047
 C     1.623977    -2.949763    -0.461101
 H     1.165883    -2.220340    -1.130492
 C     2.792173    -4.820165     1.259764
 H     3.238232    -5.569985     1.915334
 C     1.565210    -4.307569    -0.767417
 H     1.079450    -4.656575    -1.679722
 C     2.147842    -5.225832     0.096048
 F     2.092647    -6.524713    -0.197480
 C     2.081634     0.595285    -1.559614
 C     3.317205    -0.052941    -1.625450
 H     3.568578    -0.834692    -0.912615
 C     1.772416     1.594417    -2.483338
 H     0.799300     2.078842    -2.421718
 C     4.248166     0.331887    -2.585549
 H     5.227183    -0.147092    -2.639236
 C     2.697325     1.973827    -3.451334
 H     2.472822     2.756814    -4.177812
 C     3.933227     1.341474    -3.485871
 F     4.829567     1.706772    -4.401291
