  96
scf done:    -2650.981596
 C    -1.007599    -4.000984    -1.196330
 H    -1.725720    -4.559356    -0.586717
 H    -1.373061    -3.784500    -2.204424
 C     0.395866    -4.235534    -0.999193
 H     0.705432    -4.961907    -0.240712
 H     1.065426    -4.192523    -1.862909
 H     0.211104    -1.805453    -1.764857
Ir    -0.123935    -2.277264    -0.230105
 C    -2.086638    -0.037936    -2.042248
 O    -3.320942    -1.109913     0.010250
 O    -1.521741     0.643604     0.584155
 C     1.679517    -0.153015     1.949391
 O     3.154917    -1.828154     0.585330
 O     2.263722     0.075419    -0.712470
 P     1.730953    -1.058340     0.345349
 P    -1.769051    -0.692757    -0.351440
 C    -0.419386    -2.913296     1.560813
 O    -0.570758    -3.290122     2.635231
 H    -1.095202     0.213287    -2.441910
 H    -2.432773    -0.925841    -2.595494
 C    -3.030671     1.115002    -2.167329
 C    -4.414625     0.943031    -2.024566
 H    -4.811289    -0.057623    -1.844894
 C    -2.539676     2.407039    -2.386605
 H    -1.463943     2.559620    -2.506976
 C    -5.280590     2.030663    -2.071197
 H    -6.359215     1.909139    -1.955982
 C    -3.393106     3.506791    -2.437342
 H    -3.017489     4.517774    -2.605288
 C    -4.756880     3.303466    -2.271216
 F    -5.582350     4.348038    -2.313564
 C    -3.646642    -2.207475     0.853027
 H    -4.597054    -2.611609     0.468834
 H    -2.880366    -2.990400     0.736597
 C    -3.790902    -1.791423     2.301600
 H    -3.850990    -2.702440     2.921692
 H    -2.861059    -1.282645     2.614378
 C    -4.999709    -0.902067     2.562841
 H    -5.918195    -1.488439     2.384789
 H    -5.018378    -0.091767     1.814481
 C    -5.023762    -0.315702     3.964220
 H    -5.013949    -1.107061     4.730753
 H    -4.142451     0.321882     4.144019
 H    -5.919575     0.300688     4.132706
 C    -2.543191     1.517055     1.064675
 H    -3.185102     1.853095     0.236712
 H    -3.177401     0.965213     1.773991
 C    -1.907239     2.702535     1.752751
 H    -2.726686     3.299628     2.190355
 H    -1.304951     2.343568     2.606677
 C    -1.058879     3.583498     0.847333
 H    -1.655549     3.865845    -0.036427
 H    -0.209805     2.994656     0.464570
 C    -0.549509     4.835010     1.542532
 H    -1.381224     5.488552     1.851014
 H     0.020773     4.587023     2.452018
 H     0.112161     5.421640     0.887600
 H     0.632326     0.158154     2.079427
 H     1.892691    -0.924602     2.708756
 C     2.596990     1.030700     2.050212
 C     3.963110     0.935565     1.748230
 H     4.380365    -0.035577     1.477374
 C     2.080528     2.286007     2.386079
 H     1.019436     2.379509     2.627273
 C     4.777641     2.062486     1.747511
 H     5.837241     2.000440     1.492779
 C     2.883384     3.425467     2.395576
 H     2.481209     4.409720     2.640941
 C     4.223235     3.298112     2.059851
 F     4.993950     4.386937     2.020720
 C     3.561387    -2.920117    -0.234547
 H     4.445586    -3.339346     0.270101
 H     2.765469    -3.681074    -0.232409
 C     3.893373    -2.505203    -1.653251
 H     4.179069    -3.415356    -2.210245
 H     2.973955    -2.128290    -2.134150
 C     4.993065    -1.458264    -1.751758
 H     5.928933    -1.871324    -1.334575
 H     4.717059    -0.604955    -1.112767
 C     5.226092    -0.972122    -3.172021
 H     5.510039    -1.798722    -3.843619
 H     4.313140    -0.511515    -3.582406
 H     6.025320    -0.216576    -3.216566
 C     1.427578     1.044775    -1.318055
 H     1.219160     0.718893    -2.353663
 H     0.463793     1.115242    -0.787487
 C     2.120380     2.392126    -1.306028
 H     1.448367     3.122277    -1.792690
 H     2.230586     2.720349    -0.259816
 C     3.483584     2.400899    -1.981265
 H     3.370721     2.124874    -3.045148
 H     4.100848     1.610562    -1.525505
 C     4.193215     3.739569    -1.861070
 H     3.599796     4.553750    -2.308412
 H     4.369581     4.002128    -0.805784
 H     5.170716     3.725806    -2.366635
