  92
scf done:    -2606.277170
 C    -0.980431    -3.062522    -1.166040
 H    -1.343737    -3.914048    -0.571205
 H    -1.868132    -2.685256    -1.699933
 C     0.086800    -3.508265    -2.156390
 H     0.971928    -3.925924    -1.649758
 H    -0.289548    -4.283089    -2.851485
 H     0.451970    -2.673487    -2.779177
Rh    -0.003714    -1.605698     0.031627
 C    -1.259266     0.179104    -2.776756
 O    -2.989663    -0.531592    -0.935350
 O    -1.356984     1.347534    -0.224809
 C     1.301131     0.347892     2.771735
 O     2.963781    -0.782362     1.057504
 O     1.629779     1.252528     0.138765
 P     1.415508    -0.150646     1.004788
 P    -1.374845    -0.136810    -0.970241
 C     0.326170    -2.980114     1.264926
 O     0.387732    -3.774606     2.091883
 H    -1.288420    -0.862820    -3.148316
 C    -2.404472     0.949420    -3.423183
 H    -2.319501     0.878498    -4.519544
 H    -3.379645     0.540853    -3.126356
 H    -2.383433     2.014887    -3.155053
 C     0.118963     0.750653    -3.093188
 H     0.916245     0.142702    -2.640164
 H     0.279173     0.771283    -4.182070
 H     0.226263     1.777613    -2.715278
 C    -3.563507    -1.216090     0.103477
 C    -4.478371    -2.219842    -0.206265
 H    -4.686446    -2.438316    -1.255193
 C    -3.280715    -0.916782     1.435029
 H    -2.574185    -0.121041     1.672569
 C    -5.099255    -2.926260     0.818397
 H    -5.814182    -3.713916     0.564603
 C    -3.907223    -1.637556     2.448969
 H    -3.674955    -1.397559     3.490171
 C    -4.821341    -2.656622     2.164666
 C    -5.461688    -3.456542     3.262062
 H    -6.493750    -3.739441     3.006985
 H    -5.485719    -2.896545     4.208022
 H    -4.904186    -4.389941     3.447859
 C    -2.101368     2.451813    -0.546010
 C    -3.478784     2.489049    -0.326488
 H    -3.986248     1.612927     0.078294
 C    -1.445849     3.573076    -1.052870
 H    -0.367450     3.527829    -1.214112
 C    -4.189963     3.643045    -0.641021
 H    -5.270821     3.659505    -0.474953
 C    -2.172948     4.721148    -1.356931
 H    -1.649469     5.592320    -1.760554
 C    -3.557416     4.778820    -1.162230
 C    -4.337835     6.023747    -1.470643
 H    -4.546128     6.599727    -0.553469
 H    -5.308532     5.786809    -1.931300
 H    -3.788217     6.684562    -2.156007
 H     1.153511    -0.649209     3.228613
 C     2.536032     0.984116     3.399565
 H     2.413234     1.011253     4.494324
 H     3.444686     0.411791     3.169420
 H     2.683390     2.017182     3.055575
 C     0.026826     1.156633     2.988535
 H    -0.841919     0.658121     2.536285
 H    -0.165566     1.277907     4.065443
 H     0.107432     2.158845     2.544154
 C     3.341162    -1.664727     0.075936
 C     3.268712    -1.319341    -1.274771
 H     2.919874    -0.324796    -1.559158
 C     3.802815    -2.924166     0.449541
 H     3.847483    -3.177673     1.510188
 C     3.643414    -2.247241    -2.242489
 H     3.575762    -1.970004    -3.298100
 C     4.176826    -3.838380    -0.531222
 H     4.530746    -4.827836    -0.228977
 C     4.095275    -3.524287    -1.893293
 C     4.441223    -4.536332    -2.946430
 H     5.156489    -5.282497    -2.571563
 H     4.878582    -4.060523    -3.836471
 H     3.540585    -5.080891    -3.276848
 C     2.472201     2.292624     0.432021
 C     3.858352     2.150299     0.357020
 H     4.288918     1.182277     0.099763
 C     1.915733     3.527352     0.763398
 H     0.829678     3.622409     0.812622
 C     4.674293     3.241864     0.639123
 H     5.759725     3.117716     0.589286
 C     2.747434     4.609705     1.037827
 H     2.299787     5.571248     1.304252
 C     4.140815     4.489522     0.985462
 C     5.034723     5.664465     1.258143
 H     5.957524     5.358090     1.772533
 H     4.531478     6.417922     1.880916
 H     5.334932     6.161103     0.320140
