  54
scf done:    -1833.143631
 C    -2.365260    -2.481972    -0.087607
 H    -2.225489    -3.549405     0.139758
 H    -3.073668    -2.083003     0.650630
 C    -2.893400    -2.309218    -1.503180
 H    -3.800497    -2.919393    -1.675140
 H    -3.168574    -1.263445    -1.713642
 H    -2.158769    -2.619863    -2.265942
Rh    -0.541312    -1.411394    -0.098488
 O    -1.832629     1.784461    -0.693547
 O    -3.325024     0.289590     0.538425
 O    -1.247736     1.300469     1.649778
 O     1.839563     0.824994     0.596050
 O     2.833014    -1.187507    -0.408913
 O     1.493891     0.361642    -1.915941
 P     1.410968    -0.352631    -0.440107
 P    -1.735359     0.498189     0.303193
 C     0.195671    -2.978214     0.571035
 O     0.620585    -3.885192     1.136035
 C    -0.738629     2.680541    -0.923614
 H     0.183119     2.232368    -0.517824
 C    -1.011687     3.973789    -0.181784
 H    -1.110562     3.773838     0.893910
 H    -1.944238     4.434574    -0.543332
 H    -0.189305     4.689601    -0.334833
 C    -0.598320     2.854310    -2.420111
 H    -0.384199     1.886420    -2.893390
 H    -1.528322     3.261053    -2.845954
 H     0.223105     3.549118    -2.653153
 C    -4.186650     1.370649     0.835756
 H    -3.790575     1.975699     1.666673
 H    -4.321156     2.016910    -0.044137
 H    -5.153364     0.939939     1.128754
 C    -0.660162     0.623280     2.741351
 H    -1.426895     0.358165     3.487014
 H    -0.150116    -0.295594     2.406517
 H     0.073384     1.299889     3.201320
 C     3.147690     1.183704     1.065514
 H     3.887219     0.932200     0.288120
 C     3.461257     0.388491     2.316445
 H     3.449576    -0.687377     2.095146
 H     2.715057     0.596584     3.098272
 H     4.456085     0.654152     2.704559
 C     3.127896     2.679774     1.295596
 H     2.897365     3.219170     0.365020
 H     2.357773     2.939361     2.037782
 H     4.103440     3.027687     1.666051
 C     2.998347    -2.307674    -1.251929
 H     2.071058    -2.900607    -1.322457
 H     3.294424    -1.997666    -2.267856
 H     3.789403    -2.936432    -0.821654
 C     2.596800     1.132332    -2.336129
 H     2.651633     2.082798    -1.779519
 H     3.546561     0.587809    -2.206394
 H     2.456804     1.358421    -3.401809
