  90
scf done:    -2455.876538
 C    -1.729911    -1.506787    -2.675468
 H    -1.974430    -2.567768    -2.810843
 H    -2.665828    -0.932224    -2.675468
 C    -0.689550    -0.998560    -3.652417
 H    -0.216186    -1.797263    -4.241341
 H    -1.069344    -0.228001    -4.342291
 H     0.167100    -0.481046    -3.116511
Rh    -0.411690    -1.073683    -1.119200
 O    -1.821012     2.136448    -0.741919
 C    -3.574146     0.134802    -0.319496
 C    -1.575853     0.806658     1.520657
 O     1.573297    -1.281441     1.524815
 C     3.027177    -0.916294    -0.799907
 C     1.768031     1.249904     0.512709
 P     1.464735    -0.499381     0.075502
 P    -1.780826     0.535828    -0.279408
 C    -0.281504    -2.858993    -0.622394
 O    -0.314482    -3.910888    -0.147120
 C    -1.311281     2.530847    -2.008702
 H    -0.409079     1.923513    -2.220079
 C    -0.918852     3.987563    -1.884329
 H    -0.209118     4.113941    -1.055565
 H    -1.806922     4.605922    -1.680879
 H    -0.450753     4.347615    -2.812830
 C    -2.336234     2.283755    -3.100520
 H    -2.626294     1.223540    -3.135896
 H    -3.245166     2.877587    -2.918548
 H    -1.930296     2.561818    -4.085099
 C    -4.540026     1.144505    -0.380644
 H    -4.224029     2.187415    -0.444114
 C    -3.973098    -1.200065    -0.237066
 H    -3.203426    -1.978164    -0.216510
 C    -5.889565     0.804267    -0.363713
 H    -6.649234     1.588200    -0.420305
 C    -5.326433    -1.554065    -0.205120
 C    -5.730825    -2.995760    -0.094100
 H    -5.145030    -3.628396    -0.778018
 H    -5.556595    -3.376564     0.925713
 H    -6.796479    -3.136495    -0.324131
 C    -6.278812    -0.531827    -0.274867
 H    -7.342167    -0.787624    -0.264901
 C    -1.685660     2.077272     2.088937
 H    -1.876613     2.938212     1.447121
 C    -1.308624    -0.298754     2.333554
 H    -1.199266    -1.284124     1.872649
 C    -1.521710     2.228127     3.464383
 H    -1.601669     3.221298     3.914095
 C    -1.137957    -0.158181     3.712799
 C    -0.813087    -1.344356     4.573236
 H    -1.460190    -1.387109     5.462811
 H    -0.930257    -2.284502     4.017264
 H     0.228445    -1.298657     4.932269
 C    -1.247552     1.123922     4.267794
 H    -1.115725     1.256082     5.345857
 C     2.722992    -1.907189     2.097501
 H     3.448911    -2.120383     1.294197
 C     2.255885    -3.220759     2.690667
 H     1.776473    -3.839375     1.918998
 H     1.521676    -3.040941     3.490134
 H     3.104667    -3.777561     3.115340
 C     3.373700    -0.991472     3.116033
 H     3.708057    -0.052036     2.653414
 H     2.662418    -0.742355     3.918787
 H     4.248195    -1.482972     3.568944
 C     3.001800    -1.908599    -1.783914
 H     2.052896    -2.393852    -2.028589
 C     4.243264    -0.288020    -0.493199
 H     4.265847     0.499213     0.265266
 C     4.178006    -2.263862    -2.443758
 H     4.155508    -3.037116    -3.215372
 C     5.428861    -0.634926    -1.143383
 C     6.726317     0.039500    -0.803614
 H     6.582804     0.833345    -0.057548
 H     7.453751    -0.680192    -0.395145
 H     7.186592     0.491892    -1.696036
 C     5.376797    -1.634296    -2.126015
 H     6.293640    -1.917711    -2.651171
 C     1.583996     1.717666     1.813428
 H     1.283790     1.026369     2.602388
 C     2.104491     2.151397    -0.506063
 H     2.237573     1.785023    -1.529452
 C     1.756830     3.074458     2.086276
 H     1.598868     3.442491     3.102753
 C     2.295723     3.508383    -0.242664
 C     2.709141     4.456815    -1.330692
 H     2.521989     4.032021    -2.327058
 H     2.167712     5.412144    -1.259981
 H     3.785394     4.687628    -1.265316
 C     2.112688     3.958470     1.073527
 H     2.246649     5.019975     1.300620
