  76
scf done:    -2148.352355
 C     1.215057    -1.327304    -2.436546
 H     0.865624    -1.238844    -3.476875
 H     2.260955    -0.988124    -2.435158
 C     1.130303    -2.780144    -1.992722
 H     1.714883    -3.449819    -2.651871
 H     1.529914    -2.928442    -0.973691
 H     0.092907    -3.154769    -1.998377
Rh    -0.001064    -0.282872    -1.073763
 C     1.558232    -1.182285     2.010447
 C     3.439222    -0.747798    -0.117768
 C     2.065066     1.527996     1.035770
 C    -1.377836     1.312830     1.929793
 C    -3.187031     1.023796    -0.291105
 C    -2.309043    -1.311176     1.233306
 P    -1.700723     0.251037     0.459482
 P     1.780950    -0.206645     0.464391
 C    -0.904527     0.353542    -2.545924
 O    -1.380910     0.865812    -3.460637
 H     0.672615    -0.795862     2.531780
 H     1.338390    -2.224210     1.740242
 H     2.420873    -1.157136     2.686483
 C     3.980099    -1.954117     0.348399
 H     3.442959    -2.541466     1.094433
 C     4.138478    -0.011388    -1.102198
 C     3.613432     1.267250    -1.684596
 H     3.761626     2.114768    -0.997530
 H     2.532202     1.198710    -1.887232
 H     4.128697     1.500181    -2.626610
 C     5.201512    -2.431679    -0.117749
 H     5.599000    -3.374936     0.263761
 C     5.367804    -0.508703    -1.550937
 H     5.911093     0.057987    -2.312002
 C     5.903623    -1.699224    -1.069715
 H     6.864294    -2.057972    -1.446688
 C     1.292022     2.501647     0.387091
 H     0.587845     2.157703    -0.381446
 C     3.021255     1.929526     1.994524
 C     3.932621     0.981174     2.720104
 H     4.290913     0.172073     2.069586
 H     3.425730     0.520508     3.583454
 H     4.809065     1.516577     3.110454
 C     1.420923     3.853945     0.682951
 H     0.809414     4.589978     0.155673
 C     3.132295     3.297929     2.280191
 H     3.871618     3.617373     3.019962
 C     2.345313     4.253246     1.644780
 H     2.467093     5.310683     1.892383
 H    -0.979170     2.284027     1.610039
 H    -2.260832     1.467038     2.563618
 H    -0.592752     0.827298     2.523885
 C    -3.463057     2.373528    -0.036102
 H    -2.835217     2.937598     0.655572
 C    -3.999351     0.309553    -1.201471
 C    -3.775947    -1.137688    -1.529609
 H    -4.152795    -1.794636    -0.729438
 H    -2.705875    -1.368243    -1.649948
 H    -4.293708    -1.406131    -2.460629
 C    -4.528609     3.024392    -0.650719
 H    -4.720565     4.078115    -0.435606
 C    -5.066845     0.984857    -1.804414
 H    -5.696936     0.436855    -2.510280
 C    -5.339295     2.323344    -1.538148
 H    -6.179174     2.818624    -2.030959
 C    -1.514405    -2.437583     0.980070
 H    -0.645297    -2.318421     0.322908
 C    -3.477374    -1.449677     2.016083
 C    -4.463979    -0.342002     2.251161
 H    -5.070246    -0.161618     1.349044
 H    -3.989140     0.615989     2.493284
 H    -5.148047    -0.601988     3.070777
 C    -1.822862    -3.686674     1.508799
 H    -1.185713    -4.546734     1.290630
 C    -3.766064    -2.715087     2.545215
 H    -4.665100    -2.831511     3.156845
 C    -2.955476    -3.821529     2.306116
 H    -3.218748    -4.791352     2.735419
