  66
scf done:    -1990.301410
 C     1.360906    -2.830511    -0.636990
 H     1.055256    -3.589155    -1.374005
 H     2.331579    -2.443857    -0.977964
 C     1.494195    -3.472471     0.737384
 H     2.189615    -4.333055     0.719037
 H     1.887445    -2.764567     1.483990
 H     0.530257    -3.850715     1.116142
Rh    -0.036585    -1.224015    -0.491225
 O     1.540156     1.005834     1.536875
 O     3.133932    -0.643317     0.430385
 O     2.224728     1.272910    -0.823469
 O    -2.226899     1.144884    -1.524386
 O    -3.081122    -0.224202     0.330979
 O    -1.349467     1.626478     0.717303
 P    -1.639452     0.334482    -0.223866
 P     1.724562     0.099949     0.180216
 C    -1.136696    -2.398222    -1.426031
 O    -1.777978    -3.120120    -2.047141
 C     0.866501     0.443287     2.640111
 H     0.153136    -0.337923     2.319681
 H     1.584823    -0.005223     3.346069
 H     0.306229     1.240634     3.146416
 C     4.327491     0.062663     0.812012
 H     4.047388     1.089638     1.100496
 C     5.258391     0.108153    -0.381217
 H     4.771569     0.629491    -1.216387
 H     5.515061    -0.912323    -0.704325
 H     6.188255     0.638829    -0.126232
 C     4.908539    -0.655914     2.010618
 H     4.192981    -0.656434     2.845634
 H     5.139735    -1.701011     1.754235
 H     5.833672    -0.163971     2.346243
 C     1.289855     2.180755    -1.431401
 H     0.389385     2.228649    -0.799442
 C     0.918525     1.660360    -2.803387
 H     0.494896     0.647258    -2.714294
 H     1.807069     1.612710    -3.451538
 H     0.168053     2.312553    -3.274219
 C     1.942238     3.545054    -1.442581
 H     2.190627     3.855497    -0.417498
 H     2.869529     3.526319    -2.035843
 H     1.262685     4.290964    -1.881220
 C    -2.735072     0.427049    -2.626579
 H    -1.956239    -0.200962    -3.090395
 H    -3.583017    -0.210633    -2.328413
 H    -3.082619     1.163348    -3.363528
 C    -3.133745    -1.345524     1.220339
 H    -2.183009    -1.906039     1.117408
 C    -4.281546    -2.224578     0.775865
 H    -4.121801    -2.573967    -0.254368
 H    -5.229159    -1.664975     0.810643
 H    -4.371477    -3.105049     1.429142
 C    -3.260694    -0.852165     2.647833
 H    -2.391518    -0.236976     2.922921
 H    -4.169144    -0.241139     2.766178
 H    -3.316548    -1.698979     3.348019
 C    -2.299629     2.689045     0.914966
 H    -3.292744     2.325257     0.602939
 C    -1.899457     3.873592     0.058448
 H    -1.892025     3.588572    -1.001899
 H    -0.895431     4.227239     0.340277
 H    -2.609245     4.703620     0.194693
 C    -2.317923     3.007255     2.394605
 H    -2.620435     2.128185     2.980377
 H    -1.317299     3.322914     2.728173
 H    -3.025945     3.822787     2.604381
