  78
scf done:    -4136.620343
 C     1.135798    -3.430069     0.599629
 H     1.234991    -4.270815    -0.097775
 H     2.123680    -3.209752     1.025473
 C     0.042590    -3.620312     1.628086
 H    -0.579217    -4.508939     1.449126
 H     0.410344    -3.645703     2.665761
 H    -0.688273    -2.747217     1.627029
Rh     0.070633    -1.786994    -0.112420
 O     1.845712     0.409680     2.012457
 C     3.415473    -0.895384     0.258671
 C     1.720342     1.198152    -0.489085
 O    -1.618791     0.331220    -2.001886
 C    -3.268576    -0.917733    -0.157065
 C    -1.639245     1.271589     0.566650
 P    -1.585862    -0.239805    -0.459029
 P     1.688449    -0.326483     0.525695
 C    -0.165032    -2.579186    -1.781375
 O    -0.172781    -2.950542    -2.872266
 C     1.275570    -0.183556     3.174350
 H     0.278348    -0.580978     2.900547
 C     1.117044     0.923184     4.194742
 H     0.512155     1.742027     3.782179
 H     2.102047     1.326884     4.475607
 H     0.626824     0.545602     5.104539
 C     2.138527    -1.327132     3.675123
 H     2.268916    -2.094563     2.898178
 H     3.136598    -0.962540     3.962569
 H     1.677920    -1.804316     4.553283
 C     4.468783    -0.391457     1.028195
 H     4.254402     0.320297     1.827965
 C     3.693014    -1.804047    -0.766853
 H     2.866842    -2.212817    -1.355187
 C     5.779415    -0.790221     0.783756
 H     6.605548    -0.404857     1.383707
 C     5.000329    -2.202260    -1.028961
 H     5.221533    -2.912229    -1.827429
 C     6.036807    -1.693213    -0.247399
Cl     7.666012    -2.193224    -0.557120
 C     1.448582     1.100502    -1.857217
 H     1.207239     0.127446    -2.291688
 C     1.999800     2.449489     0.067793
 H     2.199809     2.525634     1.137643
 C     1.436467     2.236682    -2.659318
 H     1.212268     2.167250    -3.724494
 C     1.983480     3.594460    -0.723582
 H     2.181713     4.577232    -0.292345
 C     1.688496     3.480515    -2.081552
Cl     1.604262     4.907476    -3.062998
 C    -2.707087     1.031787    -2.618404
 H    -3.291098     1.551901    -1.836753
 C    -3.597076     0.045454    -3.351229
 H    -4.036172    -0.690048    -2.664442
 H    -3.008891    -0.496118    -4.107457
 H    -4.418012     0.573588    -3.858969
 C    -2.106690     2.060196    -3.555843
 H    -1.465707     2.775883    -3.022835
 H    -1.492934     1.558018    -4.318808
 H    -2.902522     2.622324    -4.066104
 C    -3.465141    -2.296643    -0.303334
 H    -2.608137    -2.932565    -0.543098
 C    -4.370576    -0.111569     0.161610
 H    -4.241238     0.964012     0.302373
 C    -4.727510    -2.861974    -0.152315
 H    -4.878856    -3.936335    -0.267463
 C    -5.638638    -0.662038     0.313342
 H    -6.496986    -0.034755     0.559023
 C    -5.810184    -2.037530     0.151611
Cl    -7.383784    -2.727170     0.340023
 C    -1.251197     2.513380     0.060630
 H    -0.954722     2.604006    -0.985174
 C    -1.972086     1.165228     1.924406
 H    -2.272572     0.199209     2.340410
 C    -1.204519     3.635791     0.884178
 H    -0.889869     4.602285     0.487919
 C    -1.932740     2.276956     2.756059
 H    -2.195932     2.198377     3.812002
 C    -1.543046     3.510148     2.228342
Cl    -1.459283     4.890189     3.269231
