  56
scf done:    -1610.929777
 C     3.549955     0.512482    -1.046699
 H     4.150965    -0.287964    -1.507240
 H     3.211650     1.124284    -1.902358
 C     4.436943     1.335012    -0.119587
 H     4.852327     0.715481     0.691064
 H     5.295877     1.790646    -0.649155
 H     3.890728     2.157469     0.370765
Rh     1.887738    -0.291479     0.029989
 O    -0.507870     2.052612     0.444941
 C     1.532514     3.168464    -0.942889
 C    -0.198454     1.239026    -2.164243
 O    -1.261168    -1.089607     0.226229
 C     0.211548    -2.888590     1.680850
 C    -0.387763    -0.324205     2.722347
 P     0.113311    -1.134310     1.161195
 P     0.688502     1.580633    -0.605698
 C     2.896653    -1.840459     0.116444
 O     3.510020    -2.812929     0.119644
 C    -1.447876     3.070886     0.153895
 H    -1.369915     3.830516     0.951701
 H    -1.205685     3.580374    -0.794682
 C    -2.859634     2.523165     0.093651
 H    -3.534375     3.357355    -0.170126
 H    -2.926425     1.794146    -0.732412
 C    -3.317464     1.872921     1.389915
 H    -3.197148     2.593336     2.218528
 H    -2.635282     1.038960     1.611756
 C    -4.753737     1.378752     1.344111
 H    -5.458641     2.205231     1.158703
 H    -4.898448     0.639579     0.540343
 H    -5.047092     0.900204     2.290955
 H     2.369438     2.993933    -1.632117
 H     0.854869     3.913112    -1.384657
 H     1.937686     3.558583     0.001142
 H    -0.789406     2.094837    -2.524677
 H     0.545951     0.963097    -2.925192
 H    -0.850293     0.373321    -1.981025
 C    -2.489211    -1.702915     0.552447
 H    -2.331549    -2.750812     0.867186
 H    -2.976112    -1.173979     1.392054
 C    -3.375817    -1.668649    -0.674375
 H    -4.373122    -2.051584    -0.395510
 H    -3.518954    -0.614595    -0.969694
 C    -2.816435    -2.458012    -1.849355
 H    -2.717405    -3.518625    -1.556797
 H    -1.792051    -2.105878    -2.053362
 C    -3.666341    -2.345692    -3.103833
 H    -4.691665    -2.711599    -2.931724
 H    -3.744236    -1.298597    -3.438902
 H    -3.240845    -2.928066    -3.934841
 H    -0.657435    -3.224491     2.265789
 H     0.329453    -3.523908     0.791044
 H     1.116076    -2.999880     2.296885
 H    -0.540141     0.742909     2.512373
 H    -1.295809    -0.762294     3.164748
 H     0.444458    -0.427123     3.434900
