  82
scf done:    -2599.523370
 C     0.277663    -3.559203    -1.428307
 H     0.132478    -3.998469    -2.422542
 H     1.347229    -3.454228    -1.218999
 C    -0.496524    -4.256090    -0.332452
 H    -0.951659    -5.207406    -0.648641
 H     0.105575    -4.417252     0.572723
 H    -1.387571    -3.637872     0.013814
Rh    -0.909458    -1.878355    -1.094963
 O     0.510817    -0.090559     1.523109
 O     1.872968    -2.090148     0.698077
 O     1.591095     0.081057    -0.702537
 O    -4.039150    -0.919160    -1.191409
 O    -2.899559    -0.154474     0.972893
 O    -2.565931     1.059249    -1.261330
 P    -2.594643    -0.467584    -0.630972
 P     0.732358    -1.000653     0.166735
 C    -1.203979    -1.726914    -2.930899
 O    -1.263638    -1.519284    -4.060682
 C    -0.302075    -0.603086     2.557974
 H    -1.047161    -1.315722     2.170097
 H     0.313292    -1.101710     3.324309
 H    -0.841106     0.236658     3.016889
 C     3.111334    -1.781366     1.204436
 C     3.273855    -1.477403     2.552828
 H     2.411069    -1.508936     3.218899
 C     4.214751    -1.782470     0.352401
 H     4.071949    -2.037807    -0.698876
 C     4.532158    -1.117617     3.030130
 H     4.649040    -0.865897     4.087874
 C     5.462300    -1.415675     0.840884
 H     6.315321    -1.391264     0.157421
 C     5.642824    -1.058123     2.183174
 C     6.979397    -0.590220     2.679855
 H     7.055706    -0.667011     3.773887
 H     7.146443     0.466496     2.409994
 H     7.802583    -1.171716     2.238404
 C     2.737231     0.795548    -0.473982
 C     3.604651     0.933007    -1.557580
 H     3.324136     0.480501    -2.510320
 C     3.046091     1.390249     0.746829
 H     2.351158     1.295737     1.579464
 C     4.803036     1.619499    -1.402170
 H     5.479040     1.712310    -2.257048
 C     4.257091     2.064913     0.886175
 H     4.503714     2.507417     1.855410
 C     5.163359     2.185341    -0.172398
 C     6.484559     2.876503     0.003341
 H     6.709329     3.543958    -0.842596
 H     7.309619     2.147120     0.066843
 H     6.505112     3.477653     0.923626
 C    -5.127671    -0.094947    -1.581111
 H    -5.774531     0.125269    -0.718939
 H    -4.770916     0.846184    -2.021336
 H    -5.698696    -0.657932    -2.331659
 C    -4.079374     0.380296     1.430951
 C    -5.017086    -0.470210     2.014421
 H    -4.794156    -1.536819     2.077679
 C    -4.342858     1.745188     1.324977
 H    -3.612457     2.402558     0.852631
 C    -6.219605     0.048173     2.484390
 H    -6.952412    -0.627355     2.934467
 C    -5.551799     2.247559     1.800502
 H    -5.754355     3.318105     1.707584
 C    -6.511645     1.414910     2.387146
 C    -7.798665     1.970820     2.923932
 H    -7.708285     2.212580     3.996283
 H    -8.623168     1.250150     2.821738
 H    -8.086654     2.895721     2.403872
 C    -1.403469     1.798127    -1.328414
 C    -0.789069     1.979109    -2.562280
 H    -1.208679     1.490668    -3.443342
 C    -0.868747     2.383810    -0.181997
 H    -1.336139     2.206026     0.787269
 C     0.355183     2.768548    -2.646936
 H     0.838355     2.903928    -3.618203
 C     0.272151     3.171384    -0.285984
 H     0.692811     3.621220     0.617071
 C     0.903034     3.384447    -1.517286
 C     2.139620     4.228854    -1.602851
 H     2.529502     4.267815    -2.629336
 H     2.934516     3.825338    -0.956367
 H     1.940677     5.262288    -1.276331
