  80
scf done:    -2449.017912
 C    -1.205281    -1.289717    -2.367565
 H    -1.209171    -2.265330    -2.879176
 H    -2.254384    -1.113296    -2.078283
 C    -0.729112    -0.199899    -3.316279
 H     0.296849    -0.390030    -3.672856
 H    -1.372856    -0.116963    -4.213004
 H    -0.730690     0.794403    -2.838498
Rh     0.142455    -1.222343    -0.729510
 C    -1.375668     0.676544     2.015251
 C    -2.284868     1.345590    -0.585034
 C    -3.011309    -1.170616     0.630801
 C     1.738567    -2.048639     2.295662
 C     3.525763    -1.102492     0.264429
 C     1.897882     0.751301     1.600621
 P     1.795807    -0.918551     0.852459
 P    -1.579102    -0.067944     0.343933
 C     0.855714    -2.781056    -1.406048
 O     1.172414    -3.838604    -1.740384
 H    -0.998260    -0.096384     2.699686
 H    -0.643447     1.493417     1.984976
 H    -2.333880     1.059020     2.393469
 C    -3.433169     1.237508    -1.383892
 H    -4.001998     0.305608    -1.394985
 C    -1.583569     2.555192    -0.604110
 H    -0.673393     2.667383    -0.009494
 C    -3.862725     2.300351    -2.164776
 H    -4.753940     2.219551    -2.789882
 C    -2.007519     3.633196    -1.379004
 H    -1.432856     4.559693    -1.362317
 C    -3.155014     3.508987    -2.171160
 O    -3.646081     4.486104    -2.959240
 C    -2.967033     5.707381    -3.022164
 H    -1.935917     5.585893    -3.399220
 H    -3.525984     6.343773    -3.719990
 H    -2.927369     6.208317    -2.038283
 C    -2.903731    -2.540040     0.349655
 H    -1.966406    -2.908135    -0.080065
 C    -4.210928    -0.694821     1.167951
 H    -4.330141     0.370421     1.385528
 C    -3.958863    -3.403507     0.600903
 H    -3.883695    -4.470621     0.383867
 C    -5.282115    -1.549470     1.420426
 H    -6.204706    -1.141666     1.834081
 C    -5.158218    -2.916472     1.138074
 O    -6.130890    -3.823681     1.346934
 C    -7.354921    -3.396658     1.874668
 H    -7.854061    -2.664481     1.215497
 H    -7.989754    -4.287846     1.958249
 H    -7.236965    -2.948221     2.877068
 H     1.776359    -3.073169     1.899772
 H     2.566909    -1.907866     3.005274
 H     0.777548    -1.921513     2.814545
 C     4.615033    -1.010459     1.147224
 H     4.444782    -0.837414     2.213494
 C     3.791394    -1.277730    -1.093102
 H     2.954054    -1.330459    -1.793808
 C     5.916599    -1.118420     0.689588
 H     6.768485    -1.051995     1.369008
 C     5.098246    -1.382811    -1.572030
 H     5.262900    -1.523292    -2.640453
 C     6.170544    -1.310186    -0.678408
 O     7.465849    -1.405619    -1.032448
 C     7.783857    -1.600385    -2.382310
 H     7.433094    -0.763522    -3.011707
 H     8.878127    -1.655440    -2.443094
 H     7.356466    -2.540569    -2.772974
 C     1.962562     1.012664     2.975158
 H     1.985844     0.190533     3.693734
 C     1.864081     1.839447     0.723556
 H     1.804236     1.654313    -0.353882
 C     1.973163     2.315605     3.455270
 H     2.011518     2.526911     4.525577
 C     1.883902     3.152507     1.188079
 H     1.858596     3.973315     0.470719
 C     1.930703     3.398466     2.567191
 O     1.938536     4.626264     3.120127
 C     1.880829     5.745472     2.281141
 H     0.955559     5.758578     1.677825
 H     1.891106     6.628304     2.932685
 H     2.748994     5.794912     1.600482
