  66
scf done:    -3979.469642
 C    -1.562904    -2.430747    -2.149371
 H    -1.925922    -3.363188    -1.685933
 H    -2.475355    -1.859064    -2.384455
 C    -0.803029    -2.751273    -3.429378
 H     0.038596    -3.438473    -3.247572
 H    -1.452308    -3.226767    -4.188483
 H    -0.372895    -1.851822    -3.902438
Rh    -0.255487    -1.380877    -0.841862
 O    -2.118684     1.305738    -1.950807
 C    -3.520867    -0.372811    -0.326527
 C    -1.660253     1.526895     0.604712
 O     0.962401     0.398641     1.740829
 C     2.860054    -1.221586     0.709404
 C     2.123195     1.154377    -0.660403
 P     1.379462    -0.238158     0.275148
 P    -1.845264     0.256665    -0.688083
 C     0.469288    -3.055195    -0.430493
 O     0.814013    -4.087472    -0.068184
 C    -2.129983     0.807240    -3.270145
 H    -1.240342     0.188238    -3.476308
 H    -3.028851     0.198561    -3.465470
 H    -2.135007     1.673600    -3.946049
 C    -3.688631    -1.641416     0.233999
 H    -2.807099    -2.268721     0.397452
 C    -4.639941     0.432483    -0.566318
 H    -4.505983     1.424749    -1.004499
 C    -4.959385    -2.103029     0.566330
 H    -5.101183    -3.091406     1.006087
 C    -5.915019    -0.024227    -0.252524
 H    -6.796150     0.591696    -0.439484
 C    -6.064458    -1.290244     0.317221
Cl    -7.648998    -1.859778     0.716025
 C    -1.117959     2.780769     0.311031
 H    -0.905720     3.049959    -0.724321
 C    -1.955524     1.201103     1.932036
 H    -2.381623     0.224532     2.174407
 C    -0.850966     3.691524     1.330145
 H    -0.421924     4.670043     1.108428
 C    -1.699117     2.103515     2.956761
 H    -1.923886     1.853002     3.994602
 C    -1.134008     3.340694     2.648339
Cl    -0.757507     4.447239     3.927324
 C     1.749018     1.321461     2.457122
 H     2.760062     0.929190     2.664129
 H     1.834705     2.278068     1.917237
 H     1.237542     1.510033     3.410939
 C     2.950419    -1.812681     1.974104
 H     2.181386    -1.605482     2.722295
 C     3.832296    -1.522626    -0.251966
 H     3.768742    -1.083685    -1.251280
 C     4.001859    -2.669848     2.285817
 H     4.076777    -3.129766     3.272422
 C     4.885127    -2.381208     0.045874
 H     5.645111    -2.616760    -0.700751
 C     4.965985    -2.947657     1.318304
Cl     6.276249    -4.011969     1.697050
 C     1.416524     1.669348    -1.752869
 H     0.459373     1.219592    -2.028154
 C     3.358916     1.728819    -0.329792
 H     3.947707     1.324589     0.496784
 C     1.910501     2.739897    -2.491726
 H     1.357747     3.137167    -3.344440
 C     3.864410     2.802875    -1.054383
 H     4.824681     3.252118    -0.796261
 C     3.132684     3.305389    -2.131633
Cl     3.756992     4.638951    -3.036741
