  94
scf done:    -2756.535999
 C     1.001664    -3.525779     0.022915
 H     1.335221    -4.054689    -0.883886
 H     1.914660    -3.327566     0.605776
 C     0.032409    -4.388982     0.816296
 H    -0.828462    -4.708497     0.206410
 H     0.513445    -5.307861     1.203093
 H    -0.374941    -3.859029     1.695970
Rh    -0.085232    -1.761321    -0.348199
 O     1.752734     0.116497     1.965571
 C     3.313779    -1.161457     0.193718
 C     1.788993     1.080925    -0.505545
 O    -1.718990     0.560462    -1.991236
 C    -3.341489    -0.661211    -0.077442
 C    -1.571843     1.420910     0.594420
 P    -1.651507    -0.065892    -0.464685
 P     1.629326    -0.485309     0.420416
 C    -0.676473    -2.556008    -1.922270
 O    -0.868525    -2.932244    -2.993854
 C     0.964344    -0.451310     3.009508
 H    -0.061853    -0.598705     2.620579
 C     0.936405     0.564387     4.130441
 H     0.541874     1.522838     3.766406
 H     1.952382     0.727603     4.522520
 H     0.298871     0.213463     4.955705
 C     1.520487    -1.796401     3.436831
 H     1.544010    -2.496963     2.589300
 H     2.545205    -1.688537     3.824740
 H     0.894654    -2.240015     4.226009
 C     3.617623    -1.863542    -0.982066
 H     2.826465    -2.048494    -1.714380
 C     4.322930    -0.956586     1.132280
 H     4.094876    -0.406539     2.047490
 C     4.897108    -2.339659    -1.211468
 H     5.145711    -2.890599    -2.120397
 C     5.614581    -1.440904     0.918168
 H     6.380415    -1.269555     1.675189
 C     5.908305    -2.134242    -0.260396
 O     7.120876    -2.640533    -0.563636
 C     8.167566    -2.475058     0.349102
 H     7.946532    -2.952575     1.320400
 H     9.049276    -2.958818    -0.090410
 H     8.396880    -1.408749     0.524407
 C     1.454957     1.110550    -1.866502
 H     1.060868     0.208649    -2.342231
 C     2.255200     2.246459     0.101117
 H     2.500413     2.231625     1.164748
 C     1.577729     2.282134    -2.597534
 H     1.311387     2.321886    -3.655143
 C     2.378745     3.431763    -0.622894
 H     2.736385     4.329765    -0.117971
 C     2.034972     3.455027    -1.980085
 O     2.102171     4.552333    -2.763161
 C     2.554079     5.751776    -2.204622
 H     3.586549     5.665905    -1.822004
 H     2.534528     6.501184    -3.006198
 H     1.901521     6.095238    -1.381250
 C    -2.759379     1.389547    -2.512721
 H    -3.244665     1.930496    -1.679327
 C    -3.782829     0.528852    -3.230822
 H    -4.242231    -0.198836    -2.548582
 H    -3.295466    -0.024313    -4.048091
 H    -4.581919     1.153680    -3.657985
 C    -2.108033     2.397298    -3.439215
 H    -1.374662     3.017509    -2.905632
 H    -1.581877     1.873454    -4.251720
 H    -2.866550     3.058056    -3.884733
 C    -4.411524     0.202409     0.222473
 H    -4.241609     1.279708     0.286831
 C    -3.598613    -2.034439    -0.110534
 H    -2.775432    -2.721368    -0.326664
 C    -5.684787    -0.289311     0.451106
 H    -6.519881     0.375474     0.679751
 C    -4.873521    -2.546508     0.124696
 H    -5.028195    -3.624996     0.091067
 C    -5.929899    -1.671374     0.400628
 O    -7.195182    -2.057348     0.635917
 C    -7.505299    -3.423887     0.600373
 H    -6.945323    -3.990887     1.364338
 H    -8.578668    -3.507598     0.811546
 H    -7.300160    -3.864217    -0.390926
 C    -1.987226     1.360771     1.935894
 H    -2.442142     0.445885     2.325065
 C    -1.000980     2.606839     0.133146
 H    -0.644191     2.669602    -0.896013
 C    -1.842198     2.451085     2.777268
 H    -2.164757     2.412897     3.819380
 C    -0.852034     3.713319     0.968449
 H    -0.392512     4.616722     0.567926
 C    -1.267186     3.639260     2.300692
 O    -1.151065     4.642973     3.192328
 C    -0.562027     5.843449     2.779488
 H    -1.135916     6.325813     1.968403
 H    -0.555045     6.508238     3.652542
 H     0.477125     5.693455     2.436132
