  96
scf done:    -2906.773957
 C     1.051758    -3.072511    -0.489554
 H     0.668922    -3.895952    -1.116221
 H     2.103513    -2.932512    -0.782295
 C     0.959165    -3.460872     0.979588
 H     1.436312    -4.438180     1.190727
 H     1.448827    -2.722269     1.634605
 H    -0.087829    -3.537131     1.321147
Rh    -0.142855    -1.360117    -0.703622
 C     1.066657     0.482782     2.047911
 C     3.179353    -0.883696     0.477538
 C     2.047564     1.507452    -0.447084
 C    -2.334368     1.010839    -2.139438
 C    -3.590735    -0.632931    -0.230205
 C    -1.918691     1.417339     0.760585
 P    -1.940217     0.143735    -0.570587
 P     1.512140    -0.085793     0.353990
 C    -0.610697    -1.927459    -2.382238
 O    -0.692600    -2.080732    -3.532790
 H     0.337123     1.289039     1.907346
 H     0.571140    -0.352449     2.559123
 H     1.909752     0.843506     2.636195
 C     3.812392    -1.155191    -0.750458
 O     3.152819    -0.743795    -1.847670
 C     3.359503    -1.401041    -3.066002
 H     2.509045    -1.142459    -3.708800
 H     4.296402    -1.079398    -3.554896
 H     3.375573    -2.495298    -2.931795
 C     3.810806    -1.344447     1.646696
 O     3.159514    -1.153995     2.815870
 C     3.675800    -1.700718     3.992342
 H     2.958020    -1.460951     4.787862
 H     4.656227    -1.265974     4.257629
 H     3.781313    -2.797665     3.924231
 C     5.045629    -2.004502     1.589557
 H     5.532149    -2.350968     2.500254
 C     5.041043    -1.822146    -0.819848
 H     5.511569    -2.014675    -1.783818
 C     5.650042    -2.232601     0.357816
 H     6.611609    -2.750056     0.318823
 C     2.962406     2.356118     0.214506
 O     3.408775     1.943758     1.416681
 C     4.437272     2.634644     2.061140
 H     4.675525     2.057944     2.964396
 H     5.341250     2.702212     1.431513
 H     4.131263     3.653014     2.359526
 C     1.681648     1.860751    -1.764269
 O     0.895791     1.014160    -2.439827
 C     0.739035     1.151424    -3.822409
 H     0.191834     0.260469    -4.155984
 H     1.714696     1.198006    -4.336912
 H     0.155024     2.050266    -4.090933
 C     2.146657     3.047300    -2.353480
 H     1.847486     3.310389    -3.367038
 C     3.414684     3.551092    -0.362927
 H     4.104327     4.202358     0.172026
 C     2.994805     3.884850    -1.643711
 H     3.349187     4.810799    -2.103636
 H    -2.568434     0.214581    -2.861001
 H    -3.178269     1.700154    -2.040642
 H    -1.440728     1.546388    -2.465758
 C    -4.761379     0.151239    -0.169285
 O    -4.600879     1.485539    -0.293434
 C    -5.686397     2.341321    -0.090580
 H    -5.291330     3.363159    -0.158904
 H    -6.469786     2.208828    -0.857740
 H    -6.136514     2.199031     0.907239
 C    -3.722142    -2.018736    -0.016811
 O    -2.591707    -2.734744     0.067536
 C    -2.619565    -4.120125    -0.132136
 H    -1.574420    -4.431823    -0.251194
 H    -3.179298    -4.384247    -1.045058
 H    -3.060255    -4.652968     0.729175
 C    -4.983860    -2.610923     0.145620
 H    -5.072856    -3.687359     0.288301
 C    -6.021694    -0.430605     0.017262
 H    -6.921223     0.182830     0.046814
 C    -6.117673    -1.810638     0.156705
 H    -7.100166    -2.270000     0.290742
 C    -2.155006     0.969952     2.074740
 O    -2.345554    -0.356383     2.202259
 C    -2.616375    -0.917486     3.451755
 H    -2.748305    -1.993394     3.280937
 H    -1.781498    -0.764959     4.158314
 H    -3.541448    -0.506732     3.892588
 C    -1.547655     2.760326     0.582504
 O    -1.236586     3.145188    -0.671730
 C    -0.706107     4.421780    -0.887344
 H    -0.482453     4.488115    -1.959051
 H     0.232199     4.570389    -0.326169
 H    -1.424810     5.216944    -0.620714
 C    -1.490846     3.641067     1.672803
 H    -1.204553     4.682070     1.530718
 C    -2.132440     1.845609     3.165046
 H    -2.333860     1.488160     4.174097
 C    -1.800121     3.178067     2.946782
 H    -1.762014     3.869002     3.792305
