  68
scf done:    -1768.048656
 C     3.558688    -0.690579     0.130358
 H     4.177582    -0.434408     1.005565
 H     3.421917    -1.782835     0.195829
 C     4.306582    -0.352224    -1.154057
 H     4.548977     0.720463    -1.216671
 H     5.260647    -0.906571    -1.243628
 H     3.716922    -0.590059    -2.057009
Rh     1.738962     0.425305     0.065212
 O    -0.918097    -1.504689    -0.614826
 C     1.399041    -2.739881    -1.480557
 C     0.563255    -2.575048     1.351183
 O    -1.460046     1.742029     0.344840
 C     0.385309     3.539137    -0.539108
 C    -0.715387     1.332672    -2.175073
 P    -0.036585     1.741680    -0.522092
 P     0.694531    -1.597687    -0.206319
 C     2.664515     1.756483     0.964031
 O     3.202446     2.511241     1.647026
 C    -1.743613    -2.593045    -0.977925
 H    -1.599710    -2.814178    -2.052788
 H    -1.473137    -3.504255    -0.416845
 C    -3.192723    -2.242453    -0.703788
 H    -3.817908    -3.063620    -1.097069
 H    -3.357286    -2.224718     0.386652
 C    -3.625936    -0.911535    -1.300000
 H    -3.424065    -0.914486    -2.386470
 H    -2.993807    -0.117529    -0.873652
 C    -5.089712    -0.591996    -1.048369
 H    -5.756153    -1.352067    -1.487738
 H    -5.306313    -0.549937     0.031408
 H    -5.366845     0.382801    -1.477587
 H     2.456739    -2.449468    -1.567286
 C     1.286291    -4.245154    -1.289196
 H     0.244428    -4.593826    -1.251155
 H     1.781987    -4.573380    -0.363523
 H     0.927778    -2.417561    -2.424919
 H     1.775616    -4.772284    -2.122875
 H     0.092520    -3.544540     1.119163
 C     1.838575    -2.766888     2.154179
 H     2.302996    -1.797437     2.384379
 H     2.584441    -3.371810     1.617329
 H    -0.169738    -2.000406     1.938232
 H     1.615370    -3.280478     3.101766
 C    -1.382353     1.991907     1.736958
 H    -0.404459     1.644437     2.124353
 H    -1.446844     3.080876     1.916991
 C    -2.510819     1.270886     2.440322
 H    -2.596913     1.665621     3.467663
 H    -3.454525     1.526846     1.927110
 C    -2.321811    -0.238087     2.469116
 H    -1.431848    -0.468321     3.081746
 H    -2.082121    -0.578008     1.449184
 C    -3.524223    -0.992852     3.008877
 H    -3.771749    -0.680446     4.036374
 H    -4.417780    -0.813866     2.388999
 H    -3.347135    -2.079469     3.027933
 H     1.236012     3.637956    -1.235030
 C    -0.714487     4.550649    -0.822949
 H    -1.634464     4.304606    -0.271728
 H    -0.972146     4.597203    -1.889169
 H     0.816008     3.717540     0.460303
 H    -0.398108     5.560320    -0.518945
 H    -0.885808     0.247912    -2.101271
 C    -1.976141     2.033661    -2.660847
 H    -1.785806     3.065359    -2.984127
 H    -2.740264     2.062386    -1.871430
 H     0.129268     1.466335    -2.872451
 H    -2.401506     1.494113    -3.521211
