  84
scf done:    -4215.180865
 C    -0.586982    -0.746004    -3.229365
 H    -0.625986    -1.682596    -3.807301
 H    -1.641692    -0.456561    -3.087168
 C     0.163802     0.328464    -4.002322
 H    -0.318802     0.560156    -4.970994
 H     0.222825     1.278275    -3.443788
 H     1.198574     0.021806    -4.226176
Rh     0.490759    -0.965824    -1.410045
 O    -1.121700     0.150437     1.224395
 C    -1.510495     1.903041    -0.804538
 C    -2.887308    -0.616101    -0.712967
 O     1.647627    -1.647355     1.784274
 C     3.653345    -1.019056     0.082671
 C     1.907365     0.896665     1.129482
 P     1.862484    -0.773199     0.396697
 P    -1.246252     0.137327    -0.422647
 C     1.311796    -2.459720    -2.156376
 O     1.687031    -3.477056    -2.539943
 C    -2.145531     0.587840     2.103403
 H    -1.651731     1.196404     2.880253
 H    -2.852171     1.256174     1.581522
 C    -2.875891    -0.582959     2.725557
 H    -3.260677    -1.230163     1.920910
 H    -2.149964    -1.191591     3.290148
 C    -4.022919    -0.156757     3.628720
 H    -4.731383     0.459942     3.047294
 H    -3.641202     0.499721     4.430944
 C    -4.760328    -1.338606     4.237317
 H    -5.180805    -1.988072     3.453003
 H    -4.084996    -1.958245     4.848763
 H    -5.589747    -1.012633     4.882582
 C    -0.985307     2.869293     0.061238
 H    -0.507781     2.559923     0.992362
 C    -2.102661     2.318261    -2.005308
 H    -2.515305     1.582146    -2.699054
 C    -1.052644     4.223296    -0.250813
 H    -0.635980     4.970029     0.427661
 C    -2.173886     3.669236    -2.329668
 H    -2.634736     3.996193    -3.262995
 C    -1.647338     4.615319    -1.448923
Cl    -1.733684     6.295733    -1.851308
 C    -4.090597     0.081615    -0.551974
 H    -4.082263     1.157985    -0.364347
 C    -2.928731    -1.986633    -0.996219
 H    -1.985305    -2.516779    -1.157592
 C    -5.312082    -0.580710    -0.633244
 H    -6.252438    -0.042672    -0.504012
 C    -4.141678    -2.660790    -1.079962
 H    -4.176721    -3.729225    -1.298276
 C    -5.328273    -1.952640    -0.885359
Cl    -6.841879    -2.783649    -0.972169
 C     1.696690    -3.068184     1.694572
 H     1.799719    -3.381544     0.639476
 H     2.604047    -3.405142     2.223270
 C     0.458423    -3.690905     2.299103
 H     0.641292    -4.775592     2.398942
 H     0.335055    -3.302608     3.325648
 C    -0.805611    -3.446773     1.489189
 H    -0.648294    -3.827389     0.464866
 H    -0.949756    -2.360534     1.382522
 C    -2.043632    -4.085167     2.094782
 H    -1.939763    -5.179929     2.167566
 H    -2.234894    -3.706158     3.111751
 H    -2.940604    -3.874102     1.492551
 C     4.157039    -0.987016    -1.219508
 H     3.468014    -0.855322    -2.058857
 C     4.536987    -1.194734     1.155057
 H     4.147146    -1.210697     2.176225
 C     5.522756    -1.125432    -1.457113
 H     5.921918    -1.100569    -2.472221
 C     5.899870    -1.347403     0.931451
 H     6.594695    -1.490933     1.760566
 C     6.384671    -1.309145    -0.377908
Cl     8.081473    -1.494503    -0.661417
 C     1.503950     1.154365     2.441698
 H     1.197214     0.322648     3.077641
 C     2.299445     1.959153     0.307699
 H     2.609323     1.767412    -0.723835
 C     1.474071     2.461751     2.923070
 H     1.149022     2.676779     3.942558
 C     2.283598     3.266637     0.780371
 H     2.577126     4.099152     0.139559
 C     1.855124     3.509556     2.084770
Cl     1.758411     5.142875     2.657717
