  60
scf done:    -1911.702674
 C    -2.426245    -2.520464     0.523037
 H    -2.213176    -3.371403     1.187418
 H    -3.176937    -1.906095     1.045818
 C    -2.967264    -3.001162    -0.815518
 H    -3.892422    -3.596627    -0.696616
 H    -3.212809    -2.158814    -1.483391
 H    -2.244392    -3.643308    -1.345938
Rh    -0.680457    -1.453618    -0.041298
 O    -1.117888     1.766514     0.055974
 O    -3.241459     0.579768    -0.820900
 O    -2.745692     0.572719     1.591193
 O     1.865967     0.815459    -0.207338
 O     2.372490    -1.239264    -1.431688
 O     0.681385     0.414029    -2.366860
 P     1.051648    -0.357856    -0.986457
 P    -1.964002     0.378770     0.158132
 C     0.320446    -2.809231     0.761436
 O     0.930708    -3.548532     1.395769
 C    -1.662226     3.064330     0.246833
 H    -2.145807     3.386747    -0.692637
 H    -2.429582     3.036728     1.038799
 C    -0.540332     4.007563     0.620281
 H    -0.974784     5.007102     0.798291
 H    -0.114204     3.677811     1.584359
 C     0.561462     4.084102    -0.427321
 H     0.130443     4.449809    -1.376536
 H     0.922611     3.062980    -0.625575
 C     1.721643     4.972117    -0.010175
 H     1.395914     6.007864     0.180038
 H     2.193095     4.601819     0.914931
 H     2.502638     5.005960    -0.784783
 C    -4.492811     1.147914    -0.488469
 H    -4.865682     0.756190     0.468315
 H    -4.432218     2.246470    -0.425598
 H    -5.189817     0.878061    -1.293184
 C    -2.097349     0.218943     2.795276
 H    -1.545833    -0.729671     2.678587
 H    -1.392502     1.006842     3.110432
 H    -2.871201     0.103041     3.566104
 C     1.920826     0.843610     1.213304
 H     2.158977     1.887155     1.473375
 H     0.923104     0.607281     1.621019
 C     2.964394    -0.104983     1.766402
 H     2.980097     0.014885     2.864566
 H     2.641393    -1.144068     1.580845
 C     4.355962     0.106288     1.188961
 H     4.680649     1.143243     1.389575
 H     4.292277     0.010092     0.093509
 C     5.380027    -0.873647     1.736563
 H     5.477677    -0.788943     2.831251
 H     5.090642    -1.913029     1.512691
 H     6.376261    -0.705165     1.300083
 C     2.185020    -2.413297    -2.190197
 H     1.331463    -3.005093    -1.814831
 H     2.007551    -2.178017    -3.253154
 H     3.099754    -3.015479    -2.104918
 C     1.640980     1.171684    -3.080132
 H     1.802701     2.146927    -2.596430
 H     2.603846     0.640636    -3.141791
 H     1.244873     1.329019    -4.092243
