  96
scf done:    -2931.190729
 C     1.302988     1.095829    -3.129637
 H     1.643336     0.676617    -4.084361
 H     0.413878     1.711000    -3.315224
 C     2.383327     1.823767    -2.361124
 H     3.377748     1.753974    -2.825469
 H     2.150068     2.881750    -2.167939
 H     2.524909     1.395498    -1.319553
Rh     1.193956    -0.249225    -1.543275
 O    -1.175012     1.513011     0.201182
 C    -1.965464     1.014062    -2.426731
 C    -1.897686    -1.112740    -0.398879
 O     0.603308    -2.333925     1.064284
 C     3.208474    -2.491637     0.263859
 C     2.220733    -0.276570     1.865608
 P     1.755960    -1.337326     0.400620
 P    -0.936405     0.371861    -0.992325
 C     1.646011    -1.666087    -2.646936
 O     1.730991    -2.596961    -3.325741
 C    -2.349685     2.259769     0.449705
 H    -2.489468     3.006879    -0.353875
 H    -3.237531     1.606857     0.457018
 C    -2.213653     2.963097     1.781929
 H    -1.949021     2.210749     2.542708
 H    -1.368763     3.672097     1.735717
 C    -3.489409     3.682310     2.194599
 H    -4.313122     2.948305     2.244018
 H    -3.775818     4.406461     1.410856
 C    -3.364773     4.397982     3.529573
 H    -3.117327     3.690203     4.336847
 H    -2.568369     5.158820     3.503665
 H    -4.301358     4.904201     3.807299
 H    -1.825856     2.106437    -2.433040
 H    -1.418229     0.632047    -3.299794
 C    -3.412796     0.642492    -2.545506
 C    -3.771181    -0.564211    -3.165643
 H    -2.988699    -1.210602    -3.572922
 C    -4.446391     1.467050    -2.082915
 H    -4.207817     2.428262    -1.625262
 C    -5.101733    -0.955584    -3.290054
 H    -5.379618    -1.893657    -3.773841
 C    -5.782788     1.095720    -2.200482
 H    -6.587467     1.738742    -1.839659
 C    -6.095704    -0.119631    -2.795901
 F    -7.372086    -0.483615    -2.908232
 H    -2.350270    -1.573810    -1.287658
 H    -1.116879    -1.793480    -0.036146
 C    -2.911482    -0.882220     0.676517
 C    -2.485464    -0.578593     1.977081
 H    -1.414839    -0.528511     2.182230
 C    -4.287888    -0.948123     0.430132
 H    -4.643605    -1.190413    -0.573233
 C    -3.396994    -0.319190     2.995951
 H    -3.072750    -0.074056     4.009173
 C    -5.214892    -0.692931     1.438000
 H    -6.288960    -0.736609     1.248843
 C    -4.756314    -0.371081     2.709187
 F    -5.636453    -0.109964     3.676331
 C     0.817971    -3.202902     2.165475
 H     1.290584    -4.135502     1.806993
 H     1.504616    -2.740545     2.897321
 C    -0.506443    -3.513541     2.830002
 H    -0.300663    -4.144400     3.712675
 H    -0.937736    -2.575312     3.216599
 C    -1.515937    -4.202789     1.922321
 H    -1.112961    -5.183351     1.612150
 H    -1.625703    -3.614848     0.998162
 C    -2.876942    -4.376334     2.575629
 H    -2.808172    -4.962284     3.506655
 H    -3.319002    -3.398913     2.826531
 H    -3.580295    -4.894767     1.907093
 H     3.232344    -3.141496     1.151123
 H     2.998721    -3.128958    -0.609785
 C     4.524765    -1.782727     0.128618
 C     4.829929    -1.006520    -0.999017
 H     4.100358    -0.927636    -1.808236
 C     5.475006    -1.859827     1.154271
 H     5.264982    -2.468226     2.038352
 C     6.033508    -0.315676    -1.091955
 H     6.271528     0.297774    -1.962655
 C     6.689471    -1.180396     1.073830
 H     7.434226    -1.240151     1.869346
 C     6.949301    -0.407388    -0.050512
 F     8.101078     0.256567    -0.132996
 H     1.292111    -0.217064     2.455295
 H     2.974548    -0.795439     2.477413
 C     2.684365     1.103600     1.498569
 C     4.043375     1.410628     1.373200
 H     4.793166     0.642145     1.567778
 C     1.746058     2.111176     1.239458
 H     0.678309     1.891656     1.296207
 C     4.462588     2.683612     0.994438
 H     5.521619     2.925513     0.888576
 C     2.149965     3.390648     0.869797
 H     1.422800     4.178144     0.662977
 C     3.506679     3.660234     0.746344
 F     3.899617     4.880828     0.379494
