  78
scf done:    -2298.731146
 C     0.124327    -2.624187     1.670666
 H     0.319716    -3.665652     1.365490
 H     1.063407    -2.267919     2.125692
 C    -0.989525    -2.582677     2.706914
 H    -1.933365    -2.991845     2.311643
 H    -0.734353    -3.165232     3.612360
 H    -1.204285    -1.554166     3.038691
Rh    -0.479257    -1.417477     0.027018
 O     2.264639    -0.057951     1.555737
 C     2.775457    -1.979080    -0.262832
 C     2.329093     0.698525    -1.063587
 O    -0.489124     0.341354    -2.832682
 C    -3.038011    -0.457538    -2.250771
 C    -1.758401     1.705067    -0.796902
 P    -1.404346     0.015196    -1.478147
 P     1.637749    -0.562649     0.106122
 C    -1.354809    -2.927728    -0.573160
 O    -1.709841    -3.915270    -1.053743
 C     1.407950     0.350854     2.600999
 H     0.346983     0.234938     2.325059
 H     1.610331    -0.256875     3.496481
 H     1.588693     1.411378     2.831809
 H     2.463006    -2.342291    -1.254271
 H     2.491319    -2.755692     0.461742
 C     4.243321    -1.687174    -0.218500
 C     4.901397    -1.502816     1.005424
 H     4.330109    -1.582229     1.931968
 C     4.987727    -1.567220    -1.399123
 H     4.490506    -1.715717    -2.362049
 C     6.260645    -1.204565     1.043658
 H     6.756613    -1.065103     2.007487
 C     6.348778    -1.268497    -1.362484
 H     6.911000    -1.182875    -2.295617
 C     6.990079    -1.084385    -0.139364
 H     8.056960    -0.851049    -0.106959
 H     1.896681     0.440852    -2.042502
 H     3.414065     0.509771    -1.106137
 C     2.096949     2.144885    -0.744614
 C     2.631782     2.722193     0.416808
 H     3.195073     2.090800     1.106253
 C     1.408510     2.975470    -1.637303
 H     1.018716     2.546279    -2.562030
 C     2.457694     4.077456     0.685003
 H     2.882917     4.505921     1.596090
 C     1.238356     4.334426    -1.374261
 H     0.702018     4.962938    -2.089767
 C     1.755881     4.890518    -0.205822
 H     1.624223     5.954518     0.004082
 C    -0.924406     1.156301    -3.891663
 H    -1.646064     0.634814    -4.542557
 H    -1.382251     2.098178    -3.540223
 H    -0.043106     1.410090    -4.498971
 H    -2.879705    -1.449915    -2.700203
 H    -3.259378     0.251663    -3.062774
 C    -4.168727    -0.472805    -1.266196
 C    -4.967134     0.664895    -1.083788
 H    -4.812764     1.539736    -1.721698
 C    -4.423719    -1.594639    -0.465480
 H    -3.839137    -2.503499    -0.607846
 C    -5.959917     0.699104    -0.107667
 H    -6.564020     1.600396     0.019457
 C    -5.416965    -1.562991     0.511190
 H    -5.593300    -2.448170     1.126801
 C    -6.181043    -0.412924     0.702695
 H    -6.954993    -0.387238     1.473167
 H    -2.726053     2.074002    -1.171953
 H    -0.974849     2.358614    -1.205716
 C    -1.721614     1.777150     0.705586
 C    -0.960377     2.769936     1.333074
 H    -0.367053     3.456782     0.725369
 C    -2.456534     0.889741     1.504626
 H    -3.061611     0.106559     1.043053
 C    -0.946465     2.888375     2.721309
 H    -0.345320     3.672605     3.188221
 C    -2.437943     1.006180     2.893676
 H    -3.021328     0.306919     3.497045
 C    -1.686331     2.007127     3.507975
 H    -1.675433     2.097022     4.596875
