  90
scf done:    -2455.871530
 C    -1.295947    -2.759980    -1.368365
 H    -0.870265    -3.775336    -1.360371
 H    -2.298830    -2.844118    -0.927433
 C    -1.359624    -2.247752    -2.797397
 H    -1.886579    -2.957137    -3.462985
 H    -1.890380    -1.285858    -2.873842
 H    -0.353746    -2.101586    -3.228943
Rh    -0.031993    -1.395181    -0.352955
 O    -2.224841     1.022135    -1.663504
 C    -3.497698    -0.802834    -0.286921
 C    -2.049621     1.243494     1.072805
 O     2.090027     0.122260     1.901989
 C     3.422278    -0.762680    -0.306027
 C     1.921643     1.661535    -0.241232
 P     1.801303    -0.089238     0.273018
 P    -1.887725     0.071614    -0.342281
 C     0.669570    -2.932810     0.367676
 O     0.968897    -3.897268     0.924645
 C    -1.207990     1.883905    -2.178755
 H    -0.244700     1.576399    -1.741881
 C    -1.489087     3.316276    -1.768240
 H    -1.511046     3.414093    -0.673932
 H    -2.457294     3.651283    -2.172262
 H    -0.700949     3.981008    -2.149991
 C    -1.156119     1.695798    -3.679794
 H    -0.913467     0.654411    -3.934137
 H    -2.129866     1.945256    -4.129561
 H    -0.393067     2.352831    -4.123354
 C    -4.363342    -0.731321    -1.383497
 H    -4.081149    -0.115902    -2.238304
 C    -3.838389    -1.596120     0.829515
 C    -2.924828    -1.747876     2.007873
 H    -2.905025    -0.837640     2.627456
 H    -1.889554    -1.931008     1.669915
 H    -3.238593    -2.587799     2.642659
 C    -5.573862    -1.418466    -1.383687
 H    -6.238049    -1.350369    -2.248456
 C    -5.062694    -2.272996     0.808167
 H    -5.333653    -2.890691     1.668771
 C    -5.928033    -2.188453    -0.279451
 H    -6.875323    -2.732968    -0.265758
 C    -1.016371     1.226894     2.011498
 H    -0.191178     0.530915     1.865776
 C    -3.142244     2.126023     1.254331
 C    -4.325340     2.189831     0.333930
 H    -5.006459     1.343998     0.518361
 H    -4.026987     2.130745    -0.719406
 H    -4.888960     3.119077     0.496925
 C    -1.022381     2.061489     3.125054
 H    -0.198291     2.021488     3.841484
 C    -3.119783     2.969449     2.371735
 H    -3.952103     3.664040     2.515313
 C    -2.081536     2.945053     3.300794
 H    -2.106266     3.618435     4.161247
 C     2.267446    -1.046646     2.718341
 H     2.514236    -1.901281     2.063569
 C     0.989813    -1.356220     3.470647
 H     0.160166    -1.523837     2.769746
 H     0.721274    -0.523744     4.138847
 H     1.114414    -2.265524     4.077018
 C     3.448195    -0.788436     3.630858
 H     4.367706    -0.635065     3.049131
 H     3.267583     0.108432     4.243622
 H     3.604410    -1.643387     4.305219
 C     3.385665    -1.929767    -1.078683
 H     2.412127    -2.374421    -1.302157
 C     4.668600    -0.152792    -0.024600
 C     4.821121     1.137452     0.729046
 H     4.110929     1.218879     1.559363
 H     4.635929     1.997370     0.065286
 H     5.843556     1.233016     1.121295
 C     4.546483    -2.517843    -1.570950
 H     4.486610    -3.427744    -2.172027
 C     5.824941    -0.772466    -0.515715
 H     6.793904    -0.316829    -0.293344
 C     5.776020    -1.936168    -1.278750
 H     6.702407    -2.385614    -1.644959
 C     1.769809     2.680388     0.705361
 H     1.616112     2.413048     1.750733
 C     2.124343     1.983892    -1.600370
 C     2.251339     0.932411    -2.665207
 H     1.543137     0.101462    -2.503813
 H     3.259177     0.489697    -2.678694
 H     2.053306     1.358218    -3.658411
 C     1.836882     4.018319     0.328348
 H     1.713726     4.801345     1.079917
 C     2.203197     3.335755    -1.952522
 H     2.367677     3.595303    -3.002168
 C     2.065709     4.347572    -1.005105
 H     2.127755     5.394143    -1.312863
