  80
scf done:    -1925.179549
 C    -1.322133    -3.053851    -0.451989
 H    -1.265804    -3.850471     0.307261
 H    -2.375307    -2.729285    -0.437765
 C    -0.974788    -3.621079    -1.823200
 H     0.051571    -4.020803    -1.850347
 H    -1.650844    -4.445300    -2.122413
 H    -1.034004    -2.858402    -2.618979
Rh     0.083686    -1.488788    -0.092834
 O    -1.088182     1.564691    -0.815690
 C    -2.718934    -0.343602    -1.952151
 C    -2.722070     0.252515     0.917934
 O     1.888177     1.357291     0.829660
 C     3.466846    -0.697213    -0.036238
 C     1.867557     0.956180    -1.765785
 P     1.781522     0.036677    -0.185252
 P    -1.607407     0.014594    -0.527303
 C     1.060742    -2.733743     0.864823
 O     1.609076    -3.453227     1.578217
 C    -1.854621     2.754857    -0.789921
 H    -1.822956     3.195408    -1.802936
 H    -2.912218     2.548375    -0.561259
 C    -1.288428     3.728492     0.224015
 H    -1.932235     4.626613     0.230884
 H    -1.373755     3.278059     1.228970
 C     0.159076     4.116048    -0.039250
 H     0.235314     4.569820    -1.044069
 H     0.766149     3.198936    -0.054707
 C     0.719888     5.069301     1.002595
 H     0.148193     6.010767     1.049760
 H     0.690951     4.616926     2.007455
 H     1.768452     5.326651     0.788759
 H    -2.094804    -0.133685    -2.838184
 H    -2.856994    -1.437024    -1.942703
 C    -4.070892     0.350256    -2.068095
 H    -3.936413     1.441904    -2.131391
 H    -4.663668     0.166364    -1.156226
 C    -4.855749    -0.128909    -3.280791
 H    -4.305581     0.068614    -4.214505
 H    -5.039421    -1.213905    -3.231046
 H    -5.832117     0.373706    -3.354603
 H    -2.084357     0.715980     1.688253
 H    -3.498222     0.992398     0.661081
 C    -3.367474    -1.014290     1.464303
 H    -2.572994    -1.722861     1.747594
 H    -3.943232    -1.514893     0.667351
 C    -4.282282    -0.734165     2.646245
 H    -3.731148    -0.262781     3.474536
 H    -5.105287    -0.056165     2.367394
 H    -4.731454    -1.662278     3.030743
 C     2.279069     1.309972     2.186785
 H     2.929244     0.437628     2.381976
 H     2.895404     2.208991     2.352425
 C     1.111535     1.309692     3.155419
 H     1.502921     1.601344     4.147194
 H     0.415290     2.112497     2.854068
 C     0.372628    -0.014343     3.272098
 H     1.089344    -0.802125     3.565296
 H     0.005232    -0.325652     2.275664
 C    -0.771337     0.026941     4.270080
 H    -0.414766     0.257649     5.287366
 H    -1.508020     0.803050     4.003752
 H    -1.303198    -0.935563     4.313108
 H     4.217515     0.110095    -0.007550
 H     3.506405    -1.213770     0.937393
 C     3.763906    -1.694902    -1.151101
 H     3.875787    -1.154699    -2.106585
 H     2.892027    -2.360484    -1.281199
 C     5.007395    -2.527436    -0.882051
 H     5.897205    -1.891117    -0.749687
 H     4.887740    -3.127379     0.034054
 H     5.212660    -3.221835    -1.710875
 H     1.845035     0.189881    -2.560080
 H     0.902768     1.483889    -1.822027
 C     3.032990     1.919789    -1.939026
 H     3.982275     1.359948    -1.992304
 H     3.101968     2.556661    -1.042398
 C     2.885503     2.788467    -3.178971
 H     2.823354     2.177338    -4.093814
 H     1.968328     3.396819    -3.126237
 H     3.736946     3.476655    -3.294460
