 100
scf done:    -2835.070743
 C    -1.629097    -3.435500    -0.012046
 H    -1.447874    -4.326882     0.608582
 H    -2.597411    -3.033378     0.315851
 C    -1.663292    -3.823419    -1.481891
 H    -2.468508    -4.551012    -1.701813
 H    -1.841316    -2.954801    -2.137815
 H    -0.716898    -4.287968    -1.805587
Rh    -0.080706    -2.002472     0.140382
 O    -1.096743     0.802393    -1.282934
 C    -3.268010    -0.731357    -0.916908
 C    -1.966406     0.544273     1.377788
 O     2.265130    -0.475247     1.683809
 C     3.228323    -1.571503    -0.705525
 C     1.980804     0.961381    -0.717795
 P     1.824907    -0.685888     0.109291
 P    -1.625036    -0.330371    -0.203625
 C     0.751433    -3.220254     1.257353
 O     1.185165    -3.901665     2.078204
 C    -1.700462     2.051860    -1.551591
 H    -2.797791     1.958231    -1.576400
 H    -1.454260     2.754934    -0.734861
 C    -1.161170     2.565661    -2.866631
 H    -0.067892     2.439743    -2.859962
 H    -1.542663     1.932040    -3.686471
 C    -1.511955     4.022612    -3.123685
 H    -1.113644     4.636736    -2.295960
 H    -2.608634     4.155113    -3.095829
 C    -0.965982     4.538905    -4.445001
 H     0.131105     4.443227    -4.480521
 H    -1.371169     3.966903    -5.295055
 H    -1.216887     5.598444    -4.606189
 C    -3.429457    -0.636483    -2.299311
 H    -2.595799    -0.262199    -2.898072
 C    -4.328372    -1.248038    -0.147834
 O    -4.112257    -1.335848     1.178316
 C    -5.074799    -1.920139     2.006510
 H    -6.023180    -1.353761     1.997261
 H    -4.659588    -1.903146     3.021866
 H    -5.278256    -2.965871     1.717541
 C    -4.619340    -1.016487    -2.920762
 H    -4.722413    -0.932666    -4.004509
 C    -5.522056    -1.633364    -0.764132
 H    -6.344461    -2.035617    -0.172044
 C    -5.662373    -1.512591    -2.147072
 H    -6.599183    -1.821298    -2.617452
 C    -1.135847     0.219784     2.452773
 H    -0.317716    -0.484611     2.270198
 C    -3.036175     1.435879     1.599925
 O    -3.837126     1.705340     0.551548
 C    -5.018069     2.428739     0.740342
 H    -5.669044     1.953506     1.494644
 H    -5.537517     2.432368    -0.226486
 H    -4.820753     3.471649     1.045469
 C    -1.336730     0.762265     3.721775
 H    -0.670395     0.489123     4.542378
 C    -3.241516     1.985746     2.870500
 H    -4.068606     2.673616     3.047482
 C    -2.392251     1.645656     3.923835
 H    -2.568836     2.079581     4.911561
 C     3.548517    -0.377889     2.270668
 H     3.473612    -0.918259     3.229594
 H     4.294682    -0.905030     1.659356
 C     3.960174     1.059052     2.514803
 H     5.017631     1.066967     2.836823
 H     3.922905     1.597669     1.553565
 C     3.094974     1.766645     3.546944
 H     3.203829     1.259322     4.522133
 H     2.041657     1.642190     3.252536
 C     3.432085     3.240752     3.694906
 H     4.471503     3.385451     4.032568
 H     3.329802     3.768477     2.732274
 H     2.774832     3.741536     4.422595
 C     2.939617    -2.821376    -1.262299
 H     1.923429    -3.209849    -1.135825
 C     4.530787    -1.049332    -0.887897
 O     4.782028     0.164304    -0.363447
 C     5.972742     0.831009    -0.672226
 H     6.856230     0.306542    -0.268357
 H     5.902188     1.820734    -0.203856
 H     6.093973     0.957412    -1.761701
 C     3.892680    -3.554637    -1.967343
 H     3.633161    -4.527455    -2.388902
 C     5.490339    -1.778887    -1.597010
 H     6.494448    -1.378120    -1.736511
 C     5.168427    -3.027351    -2.128209
 H     5.931376    -3.585363    -2.676899
 C     2.499621     1.041897    -2.011889
 H     2.819575     0.124583    -2.511048
 C     1.512249     2.149598    -0.120212
 O     0.909304     2.038392     1.076182
 C     0.329274     3.171360     1.663146
 H     1.087129     3.929209     1.924268
 H    -0.167858     2.825623     2.577035
 H    -0.425299     3.628485     1.000643
 C     2.639671     2.257911    -2.679220
 H     3.057388     2.283480    -3.687766
 C     1.676425     3.378539    -0.772461
 H     1.347612     4.301006    -0.294386
 C     2.249803     3.430673    -2.041445
 H     2.367964     4.397636    -2.536788
