  78
scf done:    -2695.507531
 C     1.241412    -3.309571     0.417399
 H     1.318004    -4.123820    -0.313680
 H     2.248313    -3.077999     0.789256
 C     0.222356    -3.567973     1.506484
 H    -0.390796    -4.463197     1.330080
 H     0.659467    -3.629836     2.515533
 H    -0.523569    -2.713507     1.591269
Rh     0.097585    -1.668598    -0.167633
 O     1.933169     0.508610     1.905034
 C     3.444049    -0.719236     0.043715
 C     1.678189     1.357797    -0.569226
 O    -1.736148     0.467369    -1.875420
 C    -3.250981    -0.858660     0.033312
 C    -1.623317     1.347632     0.709758
 P    -1.602744    -0.141394    -0.350913
 P     1.722008    -0.191569     0.406335
 C    -0.250225    -2.422216    -1.835448
 O    -0.332151    -2.761986    -2.933773
 C     1.444954    -0.143009     3.072623
 H     0.448534    -0.565732     2.835874
 C     1.301934     0.922079     4.138262
 H     0.644053     1.727762     3.785374
 H     2.284937     1.355121     4.379774
 H     0.876331     0.496118     5.059163
 C     2.368808    -1.272940     3.488877
 H     2.481647    -2.010004     2.680519
 H     3.368821    -0.885214     3.736668
 H     1.969919    -1.793091     4.372851
 C     3.687618    -1.598103    -1.016763
 H     2.840273    -2.011006    -1.571093
 C     4.524675    -0.207935     0.770338
 H     4.335176     0.480439     1.596375
 C     4.988224    -1.959895    -1.355263
 H     5.197462    -2.645758    -2.178113
 C     5.829658    -0.570650     0.449638
 H     6.686379    -0.187516     1.007242
 C     6.042842    -1.441210    -0.613134
 F     7.289625    -1.790512    -0.924482
 C     2.004038     2.594600    -0.003248
 H     2.261546     2.645028     1.055733
 C     1.326607     1.291763    -1.921605
 H     1.044835     0.330662    -2.358272
 C     1.971650     3.754361    -0.772797
 H     2.213101     4.730948    -0.348708
 C     1.296873     2.443507    -2.702284
 H     1.019295     2.412502    -3.757115
 C     1.615554     3.661780    -2.113507
 F     1.569764     4.770500    -2.852059
 C    -2.872512     1.155144    -2.411087
 H    -3.422535     1.644031    -1.585778
 C    -3.781014     0.165466    -3.116495
 H    -4.162391    -0.596213    -2.423737
 H    -3.224981    -0.344356    -3.917793
 H    -4.641661     0.685263    -3.563589
 C    -2.348549     2.218893    -3.354730
 H    -1.693768     2.932634    -2.836293
 H    -1.767163     1.749469    -4.162603
 H    -3.182667     2.776523    -3.805386
 C    -4.352329    -0.079403     0.418292
 H    -4.237186     0.996947     0.564424
 C    -3.425513    -2.240720    -0.118849
 H    -2.567928    -2.853420    -0.411065
 C    -5.598859    -0.658816     0.629125
 H    -6.464892    -0.065208     0.927317
 C    -4.665762    -2.835599     0.091294
 H    -4.813714    -3.910717    -0.024127
 C    -5.738806    -2.032567     0.459192
 F    -6.927319    -2.590004     0.661585
 C    -1.260095     2.601596     0.211723
 H    -0.996315     2.709445    -0.841209
 C    -1.911633     1.216701     2.075864
 H    -2.188429     0.240883     2.484858
 C    -1.205124     3.712857     1.049771
 H    -0.916387     4.695423     0.673050
 C    -1.863061     2.317562     2.922920
 H    -2.092550     2.234185     3.986656
 C    -1.509072     3.555951     2.394661
 F    -1.454956     4.610847     3.203744
