  76
scf done:    -2148.365709
 C     1.450599    -2.735426     1.548601
 H     1.785230    -3.683755     1.098573
 H     2.375092    -2.235539     1.884890
 C     0.538610    -3.010850     2.735859
 H    -0.346495    -3.599344     2.444408
 H     1.051011    -3.576043     3.538238
 H     0.162769    -2.080712     3.198334
Rh     0.257555    -1.560932     0.249815
 C     1.746147     0.596692     2.646983
 C     3.397199    -0.137821     0.399779
 C     1.439363     1.819243     0.055380
 C    -1.373969     0.046154    -2.519640
 C    -3.101001    -1.078902    -0.539890
 C    -1.766122     1.306281     0.059655
 P    -1.430646    -0.317900    -0.724270
 P     1.644564     0.184163     0.862985
 C    -0.052605    -3.087436    -0.746727
 O    -0.093522    -3.986812    -1.467197
 H     0.765425     0.962635     2.983213
 H     1.977158    -0.329681     3.190653
 H     2.515900     1.348926     2.869657
 C     4.408496     0.769696     0.740960
 H     4.172627     1.676881     1.303521
 C     3.712567    -1.264781    -0.358329
 H     2.902055    -1.953596    -0.619262
 C     5.716687     0.527221     0.338545
 H     6.508126     1.232708     0.603534
 C     5.026285    -1.519733    -0.774202
 C     5.337067    -2.749926    -1.576277
 H     4.701629    -2.811376    -2.473333
 H     6.387357    -2.768744    -1.899418
 H     5.147292    -3.661707    -0.987572
 C     6.022322    -0.609845    -0.411556
 H     7.054532    -0.790146    -0.724908
 C     1.189318     3.006751     0.742823
 H     1.093864     3.014557     1.829595
 C     1.543536     1.846953    -1.341693
 H     1.757368     0.913925    -1.873795
 C     1.045593     4.199341     0.033034
 H     0.845141     5.127500     0.573605
 C     1.394060     3.030494    -2.064693
 C     1.471156     3.034868    -3.564013
 H     1.943647     2.118712    -3.945371
 H     0.464660     3.100194    -4.010988
 H     2.045405     3.896435    -3.936363
 C     1.146148     4.213116    -1.353148
 H     1.030875     5.154827    -1.897301
 H    -1.258801    -0.914388    -3.041235
 H    -2.281022     0.547316    -2.886588
 H    -0.493702     0.667934    -2.731886
 C    -3.246501    -2.305706     0.108922
 H    -2.359811    -2.816853     0.492047
 C    -4.241663    -0.413804    -1.009231
 H    -4.140617     0.566887    -1.484535
 C    -4.517049    -2.861669     0.266277
 H    -4.628594    -3.822538     0.774555
 C    -5.517918    -0.958780    -0.864161
 C    -6.732446    -0.245157    -1.383651
 H    -7.187240    -0.795187    -2.223572
 H    -7.504472    -0.149886    -0.604405
 H    -6.484351     0.764479    -1.739934
 C    -5.638167    -2.198396    -0.218411
 H    -6.629717    -2.642213    -0.089818
 C    -1.973752     2.494185    -0.639844
 H    -1.916971     2.518562    -1.729521
 C    -1.819058     1.317690     1.460351
 H    -1.650167     0.380365     2.002755
 C    -2.238796     3.671492     0.061635
 H    -2.394104     4.603446    -0.487366
 C    -2.077632     2.487195     2.174338
 C    -2.102407     2.489796     3.675421
 H    -1.245471     3.049910     4.085204
 H    -3.014293     2.970465     4.061866
 H    -2.059457     1.468998     4.080347
 C    -2.293331     3.669223     1.450228
 H    -2.498871     4.599576     1.987383
