  74
scf done:    -1846.625467
 C    -1.628737    -2.462941    -1.581182
 H    -1.293767    -3.499040    -1.743458
 H    -2.578457    -2.545191    -1.032034
 C    -1.833511    -1.784279    -2.928268
 H    -2.534884    -2.342599    -3.577858
 H    -2.238618    -0.762438    -2.828913
 H    -0.888523    -1.695191    -3.490352
Rh    -0.170638    -1.298033    -0.592703
 O    -1.886119     1.716999    -0.238788
 C    -3.591371    -0.376843    -0.010806
 C    -1.673354     0.343988     2.005002
 O     1.295078     1.264986     1.091582
 C     3.086789    -0.809152     0.664108
 C     2.267166     0.938826    -1.474502
 P     1.594738     0.050812    -0.005364
 P    -1.828280     0.111087     0.196976
 C     0.730923    -2.880280    -0.310296
 O     1.197886    -3.874813     0.043102
 C    -1.417997     2.130777    -1.514044
 H    -0.788421     1.318141    -1.931706
 C    -0.564813     3.365833    -1.307505
 H     0.244443     3.138460    -0.600583
 H    -1.172151     4.179937    -0.882508
 H    -0.130759     3.713566    -2.257445
 C    -2.590432     2.365797    -2.448734
 H    -3.180645     1.446809    -2.578960
 H    -3.252787     3.145725    -2.042168
 H    -2.241625     2.688521    -3.441446
 H    -3.748653    -0.525773    -1.092175
 H    -3.697900    -1.377350     0.441119
 C    -4.620966     0.594274     0.550240
 H    -4.395823     1.607821     0.181244
 H    -4.524575     0.644301     1.647865
 C    -6.046461     0.207948     0.186028
 H    -6.187718     0.192028    -0.906709
 H    -6.299899    -0.795732     0.563484
 H    -6.776536     0.916831     0.606065
 H    -0.682114     0.804492     2.130168
 H    -2.424741     1.083448     2.327614
 C    -1.775241    -0.953295     2.795717
 H    -1.076889    -1.687279     2.357492
 H    -2.783054    -1.388211     2.678927
 C    -1.474878    -0.763097     4.274272
 H    -0.451467    -0.383731     4.424132
 H    -2.165809    -0.039343     4.736209
 H    -1.562982    -1.709785     4.828799
 C     2.216975     1.949547     1.935840
 H     3.235386     1.875866     1.515333
 C     2.203728     1.317461     3.316185
 H     2.468654     0.251807     3.267887
 H     1.200481     1.399480     3.761151
 H     2.919928     1.820280     3.983500
 C     1.808754     3.409038     1.966401
 H     1.865674     3.856539     0.963749
 H     0.770774     3.502119     2.319723
 H     2.462508     3.982797     2.640092
 H     3.779320    -0.094756     1.137087
 H     2.709946    -1.467975     1.464051
 C     3.826502    -1.633316    -0.387731
 H     4.412538    -0.957798    -1.033035
 H     3.100300    -2.130703    -1.052111
 C     4.739229    -2.681582     0.228004
 H     5.474321    -2.226121     0.910994
 H     4.154270    -3.416617     0.802400
 H     5.296089    -3.230974    -0.545896
 H     2.535591     0.136991    -2.184528
 H     1.407823     1.454686    -1.930339
 C     3.424394     1.910993    -1.288998
 H     4.267683     1.406596    -0.786811
 H     3.110928     2.726840    -0.618283
 C     3.900402     2.501050    -2.608285
 H     4.253646     1.713474    -3.292689
 H     3.085204     3.038794    -3.118275
 H     4.727784     3.211411    -2.459204
