  90
scf done:    -2455.876183
 C    -1.768041    -2.477501     2.437197
 H    -2.277503    -1.994087     3.288856
 H    -2.565836    -2.739227     1.719230
 C    -1.088618    -3.764304     2.886851
 H    -0.376632    -3.592184     3.709761
 H    -1.818190    -4.517375     3.240263
 H    -0.517146    -4.236932     2.070184
Rh    -0.387725    -1.132838     1.545711
 O    -2.644566    -1.825284    -0.844404
 C    -3.701271    -0.211791     1.043632
 C    -2.021852     0.775643    -1.052097
 O     1.064000     0.325153    -1.125772
 C     2.087771     1.385188     1.283495
 C     2.723907    -1.370911     0.381747
 P     1.338931    -0.113398     0.440730
 P    -2.135205    -0.607204     0.151946
 C     0.554449    -1.087722     3.149779
 O     1.071919    -0.885774     4.159764
 C    -1.742450    -2.890027    -1.158597
 H    -1.093059    -3.055928    -0.274854
 C    -0.871103    -2.507311    -2.339934
 H    -0.228007    -1.648384    -2.095265
 H    -1.497092    -2.245390    -3.207220
 H    -0.217986    -3.345825    -2.626567
 C    -2.584474    -4.122817    -1.402708
 H    -3.188900    -4.356174    -0.514377
 H    -3.264533    -3.960577    -2.253438
 H    -1.946478    -4.990214    -1.627686
 H    -3.427327     0.546153     1.792669
 H    -3.962703    -1.126899     1.594357
 C    -4.820876     0.264220     0.169620
 C    -5.517506    -0.629011    -0.655936
 H    -5.244713    -1.686079    -0.644396
 C    -5.166726     1.620407     0.131137
 H    -4.629249     2.328871     0.766541
 C    -6.528616    -0.174761    -1.498658
 H    -7.062047    -0.885026    -2.135377
 C    -6.177964     2.075594    -0.712848
 H    -6.432060     3.138346    -0.727619
 C    -6.861839     1.179560    -1.532383
 H    -7.655916     1.534293    -2.193887
 H    -2.902721     0.697321    -1.707426
 H    -1.126368     0.551574    -1.653096
 C    -1.912259     2.158547    -0.472624
 C    -1.335154     2.406871     0.779128
 H    -0.979776     1.563845     1.384685
 C    -2.373600     3.252688    -1.216380
 H    -2.847496     3.075195    -2.185668
 C    -1.208556     3.708855     1.263808
 H    -0.758334     3.876233     2.245743
 C    -2.243812     4.553619    -0.737762
 H    -2.609526     5.390646    -1.337745
 C    -1.655917     4.788736     0.505487
 H    -1.556303     5.808646     0.884366
 C     1.854127     1.175653    -1.970609
 H     2.875919     1.229029    -1.564363
 C     1.238849     2.562700    -2.012973
 H     1.113117     2.996566    -1.011513
 H     0.242748     2.531841    -2.478150
 H     1.872087     3.239587    -2.606629
 C     1.906859     0.541998    -3.344170
 H     2.378082    -0.447376    -3.302947
 H     0.889107     0.431553    -3.749940
 H     2.485889     1.175081    -4.032787
 H     1.812346     1.222535     2.336490
 H     1.480691     2.236540     0.941730
 C     3.555933     1.666693     1.187746
 C     4.081556     2.575622     0.259982
 H     3.404787     3.131929    -0.391658
 C     4.449556     1.015974     2.051355
 H     4.057621     0.343953     2.820535
 C     5.455116     2.786757     0.161873
 H     5.841038     3.498124    -0.572278
 C     5.823889     1.222865     1.954563
 H     6.499376     0.698503     2.634524
 C     6.334204     2.100761     0.999272
 H     7.411439     2.263044     0.919574
 H     2.221644    -2.311435     0.651089
 H     3.403297    -1.125801     1.211388
 C     3.481019    -1.548175    -0.898034
 C     4.609287    -0.775860    -1.203811
 H     4.957191    -0.021933    -0.494323
 C     3.072015    -2.522898    -1.816718
 H     2.198613    -3.138381    -1.586168
 C     5.295218    -0.963996    -2.401586
 H     6.172369    -0.350218    -2.620744
 C     3.762393    -2.718739    -3.011150
 H     3.427397    -3.487529    -3.711691
 C     4.875224    -1.934621    -3.311088
 H     5.417613    -2.083471    -4.247662
