  90
scf done:    -2156.069550
 C     1.396272    -3.024013     0.394158
 H     1.134428    -3.944114    -0.150546
 H     2.471457    -2.875799     0.222483
 C     1.113681    -3.215168     1.877528
 H     1.587521    -4.131293     2.279636
 H     1.486080    -2.373812     2.485843
 H     0.033261    -3.307252     2.085557
Rh     0.150532    -1.407007    -0.151109
 O     1.594429     1.130975     1.723005
 C     3.512067    -0.506069     0.693091
 C     2.078436     1.440668    -0.888303
 O    -1.461484     1.020126    -1.757236
 C    -3.217422    -0.802451    -0.569141
 C    -1.809128     1.381604     0.946824
 P    -1.594531     0.094400    -0.377175
 P     1.788432     0.124471     0.388695
 C    -0.503621    -2.477562    -1.508252
 O    -0.784503    -3.043363    -2.473665
 C     1.276929     0.520593     2.944941
 H     0.449111    -0.202978     2.834554
 H     2.141744    -0.014800     3.378029
 H     0.974419     1.308638     3.649704
 H     3.365207    -1.367478     1.370597
 C     4.440583     0.488965     1.390682
 H     3.978575     0.879175     2.308772
 H     4.600635     1.365090     0.736991
 C     5.787337    -0.158598     1.704284
 H     6.456564     0.575776     2.181851
 H     5.632522    -0.964400     2.444677
 C     6.442316    -0.743270     0.457573
 H     7.385819    -1.248688     0.720436
 H     6.712618     0.080894    -0.227695
 C     5.505136    -1.702828    -0.267715
 H     5.323869    -2.591776     0.363066
 H     5.972850    -2.070563    -1.195381
 C     4.169981    -1.036892    -0.583989
 H     4.349954    -0.194333    -1.274438
 H     3.497032    -1.733559    -1.107047
 H     3.145567     1.712460    -0.788063
 C     1.261345     2.712967    -0.654323
 H     1.447399     3.099976     0.357443
 H     0.190962     2.466491    -0.722065
 C     1.586684     3.766478    -1.708356
 H     0.974967     4.667628    -1.536043
 H     2.640432     4.081890    -1.596995
 C     1.367721     3.234460    -3.119954
 H     1.636635     3.998966    -3.867298
 H     0.293015     3.020870    -3.259356
 C     2.160548     1.953893    -3.354147
 H     3.241470     2.186233    -3.328348
 H     1.955162     1.552090    -4.359765
 C     1.841774     0.897031    -2.301505
 H     0.786547     0.591619    -2.381063
 H     2.437644    -0.010037    -2.479277
 C    -2.451257     1.406851    -2.671511
 H    -3.033902     0.548253    -3.044139
 H    -3.145790     2.154220    -2.251994
 H    -1.933986     1.862028    -3.529264
 H    -3.099960    -1.227413    -1.586433
 C    -4.531515    -0.015551    -0.534127
 H    -4.504915     0.854858    -1.202826
 H    -4.691600     0.380928     0.482417
 C    -5.709335    -0.914310    -0.906282
 H    -6.647783    -0.337577    -0.866273
 H    -5.591458    -1.243445    -1.954751
 C    -5.795183    -2.137134    -0.000855
 H    -6.621424    -2.793320    -0.318926
 H    -6.037796    -1.808222     1.026141
 C    -4.478334    -2.904830     0.019880
 H    -4.290939    -3.344107    -0.976423
 H    -4.535719    -3.749509     0.725171
 C    -3.307583    -2.000413     0.388257
 H    -3.440944    -1.637146     1.420930
 H    -2.360813    -2.563697     0.375435
 H    -0.761339     1.673494     1.140878
 C    -2.345947     0.791073     2.252825
 H    -1.778464    -0.113491     2.528238
 H    -3.392433     0.471485     2.116203
 C    -2.293708     1.821912     3.376491
 H    -2.713005     1.393718     4.301432
 H    -1.239563     2.066583     3.594091
 C    -3.034335     3.098496     2.993995
 H    -2.957660     3.843122     3.802703
 H    -4.110700     2.873045     2.881414
 C    -2.505112     3.676653     1.686107
 H    -1.456781     3.996086     1.826492
 H    -3.071351     4.580009     1.406754
 C    -2.561391     2.653110     0.554909
 H    -3.614805     2.420347     0.328105
 H    -2.121932     3.079186    -0.359852
