  66
scf done:    -2141.585440
 C     1.536059    -2.638945     1.400992
 H     1.805435    -3.463243     0.718975
 H     2.492549    -2.137652     1.621781
 C     0.940517    -3.204853     2.683535
 H     0.057780    -3.833913     2.486111
 H     1.666004    -3.829124     3.238898
 H     0.607452    -2.415215     3.378438
Rh     0.138276    -1.335717     0.457883
 O     2.243561     1.019651     1.811744
 C     3.388588    -0.375009    -0.236602
 C     1.598125     1.765757    -0.600610
 O    -1.136746     0.852850    -1.709603
 C    -3.082580    -0.771049    -0.772166
 C    -2.079482     1.330331     0.858240
 P    -1.506459     0.041672    -0.318148
 P     1.797293     0.254217     0.403935
 C    -0.762008    -2.891883    -0.046614
 O    -1.235944    -3.848490    -0.467165
 C     2.290832     0.288757     3.015984
 H     1.375189    -0.309093     3.162157
 H     3.157164    -0.393250     3.042532
 H     2.386172     1.015737     3.834825
 C     3.409380    -1.501340    -1.063334
 C     4.579660     0.294994     0.063774
 C     5.802967    -1.282581    -1.295829
 C     5.784871    -0.164397    -0.460454
 C     4.616091    -1.948052    -1.599416
 H     2.470087    -2.025147    -1.265918
 H     4.630457    -2.827428    -2.247661
 H     6.749860    -1.639159    -1.708778
 H     6.716187     0.354504    -0.220510
 H     4.551517     1.175184     0.711121
 C     1.208422     2.973483    -0.015221
 C     1.773421     1.695505    -1.986712
 C     1.170950     4.025295    -2.190995
 C     1.563714     2.821102    -2.776930
 C     0.993737     4.098580    -0.810868
 H     1.087392     3.033893     1.066795
 H     0.692527     5.040016    -0.344891
 H     1.007397     4.909274    -2.812413
 H     1.710275     2.759033    -3.857978
 H     2.076502     0.753757    -2.450531
 C    -1.878887     1.935546    -2.215504
 H    -2.935847     1.666719    -2.388947
 H    -1.831787     2.803884    -1.538842
 H    -1.421183     2.217849    -3.173626
 C    -4.001360    -1.151854     0.213507
 C    -3.306820    -1.148667    -2.100500
 C    -5.360032    -2.247226    -1.457142
 C    -4.444230    -1.878675    -2.440909
 C    -5.134206    -1.885576    -0.128854
 H    -3.827949    -0.874050     1.256723
 H    -5.845476    -2.178398     0.647193
 H    -6.249100    -2.823403    -1.724103
 H    -4.612135    -2.166972    -3.481416
 H    -2.577128    -0.874575    -2.866441
 C    -1.266485     1.626839     1.957773
 C    -3.288480     2.023653     0.703179
 C    -2.834003     3.302627     2.701861
 C    -3.659413     3.007621     1.616089
 C    -1.639168     2.606876     2.875414
 H    -0.331760     1.076542     2.089626
 H    -0.994427     2.824521     3.730227
 H    -3.129589     4.071757     3.419662
 H    -4.602599     3.543164     1.483848
 H    -3.953956     1.780472    -0.128362
