  88
scf done:    -2305.483163
 C    -1.172546     0.991467    -3.072106
 H    -1.868086     0.246053    -3.497463
 H    -1.806676     1.746775    -2.577195
 C    -0.403508     1.688613    -4.187131
 H     0.156447     0.979133    -4.816644
 H    -1.072427     2.258501    -4.859597
 H     0.334119     2.405640    -3.788804
Rh     0.044660     0.090655    -1.591463
 C    -1.663090     2.023685     0.912591
 C    -3.393118     0.278947    -0.834891
 C    -1.818480    -0.835848     1.305476
 C     1.602745    -2.164808     0.804156
 C     3.360862    -0.373708    -0.816395
 C     1.828764     0.664865     1.413729
 P     1.676334    -0.492728    -0.020227
 P    -1.712631     0.421592    -0.045315
 C     0.953104    -0.730633    -2.964468
 O     1.435844    -1.384017    -3.784142
 H    -0.605163     2.058507     1.223094
 C    -1.874280     3.198578    -0.036980
 H    -1.628947     4.142491     0.474046
 H    -1.230162     3.121371    -0.924464
 H    -2.918881     3.264802    -0.375069
 C    -2.523833     2.127296     2.166926
 H    -2.260096     1.368993     2.918034
 H    -2.362465     3.112080     2.634825
 H    -3.596768     2.033568     1.949976
 H    -3.379617    -0.729304    -1.278717
 H    -3.388236     0.980959    -1.679202
 C    -4.609868     0.474909     0.016613
 C    -5.314896     1.685553    -0.012332
 H    -4.986207     2.480119    -0.687360
 C    -5.082221    -0.543737     0.855704
 H    -4.579395    -1.513843     0.858339
 C    -6.426299     1.891214     0.801613
 H    -6.957469     2.845381     0.762525
 C    -6.192306    -0.340381     1.672727
 H    -6.541109    -1.148839     2.320175
 C    -6.863269     0.881604     1.658122
 H    -7.733420     1.040887     2.299187
 H    -2.631274    -0.548627     1.989279
 H    -0.883934    -0.733442     1.885865
 C    -2.012804    -2.271425     0.883959
 C    -2.591323    -3.169066     1.792556
 H    -2.906902    -2.806725     2.775516
 C    -1.624404    -2.755074    -0.370968
 H    -1.154582    -2.064906    -1.088217
 C    -2.770060    -4.509994     1.461969
 H    -3.222438    -5.191575     2.186498
 C    -1.805588    -4.096523    -0.704467
 H    -1.494183    -4.449818    -1.690662
 C    -2.377267    -4.979649     0.208701
 H    -2.520568    -6.030273    -0.054762
 H     0.537456    -2.237478     1.077670
 C     1.855618    -3.251915    -0.235894
 H     1.541818    -4.230669     0.158526
 H     1.288853    -3.068776    -1.160916
 H     2.921754    -3.324399    -0.496031
 C     2.431500    -2.361826     2.068367
 H     2.132767    -1.673837     2.872506
 H     2.281006    -3.385556     2.448194
 H     3.507520    -2.228139     1.888668
 H     3.347021     0.615479    -1.300844
 H     3.345637    -1.110153    -1.633577
 C     4.587085    -0.534655     0.029959
 C     5.309790    -1.734997     0.031410
 H     4.987316    -2.555395    -0.614965
 C     5.050976     0.515659     0.834330
 H     4.530753     1.476582     0.816505
 C     6.433797    -1.897645     0.837983
 H     6.979830    -2.844049     0.821583
 C     6.173100     0.355165     1.644332
 H     6.514631     1.188159     2.263926
 C     6.864602    -0.855303     1.657414
 H     7.745018    -0.980899     2.291934
 H     2.671060     0.347139     2.047500
 H     0.919137     0.513567     2.023293
 C     1.981023     2.129047     1.079967
 C     1.629911     2.673404    -0.161105
 H     1.224575     2.014625    -0.948459
 C     2.485053     2.993916     2.062430
 H     2.773437     2.586255     3.035781
 C     1.770845     4.038009    -0.410021
 H     1.488297     4.435590    -1.387966
 C     2.624821     4.357190     1.817277
 H     3.018970     5.010941     2.599193
 C     2.267188     4.886046     0.576729
 H     2.379821     5.954954     0.380726
