  78
scf done:    -2298.729212
 C     1.555023    -2.560554     1.834193
 H     1.875995    -3.441219     1.252028
 H     2.489048    -2.018267     2.054126
 C     0.902023    -3.013933     3.133566
 H     0.042067    -3.678684     2.952900
 H     1.607151    -3.565365     3.784358
 H     0.518040    -2.168751     3.729883
Rh     0.190196    -1.389989     0.690087
 O     2.163257     1.143088     1.923000
 C     3.451922    -0.407890     0.082117
 C     1.631652     1.636626    -0.579154
 O    -0.989093     0.538960    -1.759430
 C    -2.958643    -1.028376    -0.784536
 C    -2.099899     1.241436     0.689093
 P    -1.431265    -0.137965    -0.316499
 P     1.816663     0.235183     0.571919
 C    -0.658416    -3.005777     0.303099
 O    -1.097178    -4.009777    -0.039030
 C     2.160680     0.529501     3.191250
 H     1.250758    -0.074823     3.346731
 H     3.037640    -0.125546     3.327266
 H     2.197541     1.331803     3.941789
 C     3.551945    -1.610474    -0.620089
 H     2.641870    -2.185128    -0.817885
 C     4.611320     0.324438     0.360101
 H     4.532146     1.268452     0.905356
 C     4.795928    -2.067530    -1.048747
 H     4.861903    -3.007568    -1.603524
 C     5.850171    -0.148090    -0.057167
 H     6.751418     0.429618     0.167729
 C     5.964365    -1.350076    -0.770253
 C     7.308770    -1.864293    -1.194230
 H     7.974088    -1.045015    -1.504685
 H     7.807014    -2.390020    -0.362483
 H     7.224791    -2.575064    -2.028533
 C     1.147750     2.871984    -0.144229
 H     0.955008     3.033838     0.916745
 C     1.900404     1.454342    -1.939656
 H     2.283925     0.495073    -2.295641
 C     0.926168     3.900335    -1.058333
 H     0.549006     4.862487    -0.700236
 C     1.681704     2.486337    -2.843364
 H     1.903201     2.327996    -3.902742
 C     1.181823     3.725876    -2.421643
 C     0.903205     4.818332    -3.411790
 H     1.681362     4.868305    -4.188007
 H    -0.056998     4.645423    -3.927232
 H     0.841313     5.801333    -2.923699
 C    -1.721247     1.542082    -2.417790
 H    -2.759535     1.227616    -2.625081
 H    -1.734939     2.476546    -1.833687
 H    -1.211790     1.737144    -3.371992
 C    -3.088050    -1.556467    -2.072456
 H    -2.314990    -1.351599    -2.817312
 C    -3.944053    -1.322214     0.165429
 H    -3.857607    -0.926390     1.181018
 C    -4.186942    -2.344624    -2.405110
 H    -4.273813    -2.744045    -3.419504
 C    -5.035364    -2.114736    -0.173146
 H    -5.796384    -2.331069     0.582053
 C    -5.177947    -2.641168    -1.463641
 C    -6.340256    -3.524358    -1.810384
 H    -6.150357    -4.562850    -1.491235
 H    -7.262124    -3.194344    -1.308963
 H    -6.525360    -3.542623    -2.893854
 C    -1.376196     1.658165     1.810130
 H    -0.444859     1.144769     2.061788
 C    -3.301535     1.900167     0.390485
 H    -3.906101     1.573630    -0.458926
 C    -1.825779     2.713066     2.600043
 H    -1.240625     3.020651     3.471108
 C    -3.743951     2.957002     1.177529
 H    -4.680955     3.460920     0.923640
 C    -3.014349     3.384094     2.296136
 C    -3.517112     4.506058     3.155490
 H    -3.914842     5.331537     2.546328
 H    -4.336216     4.162097     3.808691
 H    -2.724170     4.906509     3.802493
