  88
scf done:    -4515.980633
 C     2.339782     0.197050    -3.878370
 H     2.206699     0.830781    -4.767882
 H     3.263679     0.531958    -3.384819
 C     2.436201    -1.262935    -4.297594
 H     3.221351    -1.415245    -5.061696
 H     2.675541    -1.930632    -3.452908
 H     1.494469    -1.632839    -4.735909
Rh     0.696415     0.342055    -2.550177
 O     1.902549    -2.167949    -0.626351
 O     3.594272    -0.286230    -1.152187
 O     1.768136    -0.054779     0.604590
 O    -1.344235     1.381690    -0.058987
 O    -2.539169     0.454260    -2.110910
 O    -1.342439    -1.076457    -0.384253
 P    -1.128223     0.293399    -1.258183
 P     1.984551    -0.600219    -0.955887
 C     0.096158     1.730495    -3.656672
 O    -0.208016     2.652538    -4.263698
 C     2.283074    -2.825567     0.594250
 H     2.825377    -3.730513     0.279825
 H     2.980755    -2.193755     1.161142
 C     1.081536    -3.178369     1.439268
 H     1.472484    -3.651073     2.358500
 H     0.580714    -2.249092     1.758177
 C     0.077466    -4.106543     0.772389
 H     0.611386    -4.973394     0.343501
 H    -0.381052    -3.579387    -0.079573
 C    -0.994181    -4.590455     1.736159
 H    -0.556989    -5.195372     2.547235
 H    -1.524115    -3.745708     2.202480
 H    -1.747985    -5.210087     1.227794
 C     4.603874    -0.837904    -0.408140
 C     5.212431    -2.010868    -0.852797
 H     4.867511    -2.469191    -1.781385
 C     5.031721    -0.216396     0.764682
 H     4.556596     0.711456     1.087702
 C     6.241606    -2.580462    -0.110027
 H     6.726712    -3.499309    -0.442940
 C     6.061243    -0.784543     1.509222
 H     6.407192    -0.312149     2.429864
 C     6.656799    -1.967733     1.072422
Cl     7.932102    -2.678838     2.003232
 C     1.858032     1.232873     1.032779
 C     2.219378     2.299094     0.204934
 H     2.425940     2.129308    -0.854126
 C     1.593185     1.456438     2.386256
 H     1.323749     0.606391     3.015787
 C     2.301971     3.585264     0.733911
 H     2.580718     4.423922     0.093810
 C     1.682450     2.738965     2.914827
 H     1.477126     2.920488     3.970930
 C     2.032606     3.802780     2.082827
Cl     2.126408     5.407706     2.731038
 C    -1.260442     2.773303    -0.362118
 H    -0.275907     2.990215    -0.810321
 H    -2.034161     3.033656    -1.107081
 C    -1.455562     3.553473     0.915248
 H    -2.451328     3.319101     1.331147
 H    -0.717595     3.199978     1.652981
 C    -1.312933     5.054952     0.715266
 H    -2.010516     5.389812    -0.072879
 H    -0.299249     5.273828     0.336716
 C    -1.558236     5.846732     1.989080
 H    -2.571437     5.666983     2.382972
 H    -0.836597     5.567735     2.772084
 H    -1.453905     6.928223     1.816371
 C    -3.797049     0.143102    -1.658529
 C    -4.349750     0.741581    -0.524637
 H    -3.780059     1.484155     0.032293
 C    -4.521949    -0.807831    -2.375528
 H    -4.074549    -1.246888    -3.269021
 C    -5.603189     0.340717    -0.074738
 H    -6.031415     0.774987     0.829660
 C    -5.780700    -1.202137    -1.934003
 H    -6.351766    -1.955912    -2.478311
 C    -6.307073    -0.639695    -0.771810
Cl    -7.844292    -1.174987    -0.180446
 C    -2.225007    -1.325442     0.641120
 C    -3.242831    -2.252496     0.429721
 H    -3.330209    -2.733629    -0.544729
 C    -2.072188    -0.707126     1.880449
 H    -1.262541     0.007498     2.026049
 C    -4.151198    -2.528237     1.444272
 H    -4.971411    -3.228807     1.282345
 C    -2.976790    -0.987339     2.900989
 H    -2.881445    -0.504681     3.874879
 C    -4.018274    -1.886579     2.675500
Cl    -5.160048    -2.208972     3.937298
