  78
scf done:    -2298.719032
 C     1.168471    -2.949704     1.318802
 H     1.584077    -3.725658     0.656087
 H     2.046615    -2.473528     1.786325
 C     0.291091    -3.592156     2.384059
 H    -0.516810    -4.196402     1.940336
 H     0.869523    -4.262741     3.047300
 H    -0.193600    -2.847682     3.038282
Rh    -0.028715    -1.548405     0.253360
 O     2.166787     0.207128     2.111059
 C     3.282647    -0.811947    -0.147935
 C     1.794426     1.543367    -0.270274
 O    -1.507394     0.431125    -2.087495
 C    -3.333693    -0.724821    -0.358621
 C    -1.806815     1.516499     0.388656
 P    -1.613505    -0.068964    -0.517292
 P     1.730492    -0.110390     0.546950
 C    -0.702607    -3.018040    -0.672862
 O    -0.952303    -3.892344    -1.378332
 C     1.311434    -0.146243     3.172085
 H     0.347320    -0.532727     2.796054
 H     1.783708    -0.925489     3.789732
 H     1.118597     0.742041     3.793899
 C     3.143376    -1.896351    -1.021005
 H     2.138499    -2.293570    -1.191270
 C     4.564073    -0.269131     0.101416
 C     4.798187     0.909597     0.999287
 H     4.485600     0.692174     2.029351
 H     4.210612     1.780720     0.670468
 H     5.859685     1.191905     0.998217
 C     4.246201    -2.462685    -1.654480
 H     4.112524    -3.308047    -2.333175
 C     5.658828    -0.865405    -0.535060
 H     6.656493    -0.460450    -0.344313
 C     5.512501    -1.945381    -1.402771
 H     6.393109    -2.379545    -1.882774
 C     2.053464     1.501640    -1.648803
 H     2.179988     0.533483    -2.140068
 C     1.628550     2.790082     0.367950
 C     1.317123     2.938901     1.827366
 H     2.160682     2.610245     2.450912
 H     0.442019     2.338586     2.112889
 H     1.090870     3.987004     2.063180
 C     2.187892     2.664399    -2.399340
 H     2.399044     2.603012    -3.469183
 C     1.779328     3.948534    -0.407344
 H     1.664469     4.918570     0.084050
 C     2.064799     3.899363    -1.767560
 H     2.179465     4.825860    -2.335209
 C    -1.011116    -0.471718    -3.050340
 H    -0.072557    -0.940272    -2.708788
 H    -1.741834    -1.268506    -3.271462
 H    -0.821599     0.103868    -3.967031
 C    -3.489158    -1.862768     0.442927
 H    -2.598005    -2.315147     0.888204
 C    -4.476114    -0.119375    -0.932766
 C    -4.418079     1.141735    -1.741919
 H    -3.713538     1.057135    -2.579351
 H    -4.071638     1.981847    -1.119400
 H    -5.411909     1.398099    -2.132928
 C    -4.740543    -2.425523     0.678651
 H    -4.831241    -3.312286     1.309817
 C    -5.721114    -0.715833    -0.702701
 H    -6.607574    -0.262842    -1.155203
 C    -5.862385    -1.852354     0.090148
 H    -6.853252    -2.285034     0.248822
 C    -2.110670     1.303894     1.743588
 H    -2.206860     0.277058     2.111313
 C    -1.678299     2.833765    -0.100041
 C    -1.357279     3.184671    -1.523010
 H    -2.179700     2.911560    -2.198927
 H    -0.469805     2.652231    -1.882695
 H    -1.177402     4.264146    -1.612266
 C    -2.307040     2.360536     2.623660
 H    -2.549681     2.165017     3.670411
 C    -1.878836     3.882982     0.811458
 H    -1.781064     4.908185     0.444152
 C    -2.192383     3.665127     2.148025
 H    -2.341729     4.514531     2.818826
