 108
scf done:    -2391.772437
 C    -1.276729    -0.355800    -3.237562
 H    -0.922639    -0.954147    -4.091147
 H    -2.309883    -0.683197    -3.061336
 C    -1.246877     1.122283    -3.604396
 H    -0.225739     1.468406    -3.834207
 H    -1.867281     1.345159    -4.494001
 H    -1.624745     1.766783    -2.790367
Rh    -0.003035    -0.473619    -1.552927
 O    -1.609105     1.046362     0.985650
 C    -3.493198     0.101838    -0.781737
 C    -1.910682    -1.734070     1.011479
 O     1.793677    -0.509515     1.483133
 C     3.360370    -0.158297    -0.742362
 C     1.464063     1.892073     0.405742
 P     1.652829     0.121499    -0.060134
 P    -1.799785    -0.227310    -0.079710
 C     1.085257    -1.535872    -2.585959
 O     1.702251    -2.326580    -3.157049
 C    -1.970120     1.114397     2.350272
 H    -3.053727     0.947300     2.478169
 H    -1.437911     0.333178     2.921164
 C    -1.606947     2.481881     2.888500
 H    -1.809280     2.483359     3.973883
 H    -0.519415     2.629606     2.779193
 C    -2.355316     3.623800     2.216840
 H    -3.439863     3.489585     2.378056
 H    -2.200931     3.551233     1.127771
 C    -1.926058     4.994714     2.712358
 H    -2.083348     5.097969     3.798142
 H    -0.855866     5.171222     2.517778
 H    -2.488843     5.799599     2.216140
 H    -3.246601     0.752900    -1.641080
 C    -4.461578     0.889986     0.101181
 H    -3.968163     1.791573     0.491215
 H    -4.758873     0.280243     0.971924
 C    -5.708478     1.279515    -0.689448
 H    -6.412762     1.823139    -0.038579
 H    -5.416407     1.984573    -1.488429
 C    -6.388412     0.066603    -1.314876
 H    -7.254564     0.381479    -1.919135
 H    -6.789518    -0.577306    -0.510726
 C    -5.413819    -0.745440    -2.161114
 H    -5.096204    -0.149908    -3.035771
 H    -5.908448    -1.645428    -2.560918
 C    -4.180272    -1.141905    -1.356023
 H    -4.494077    -1.804686    -0.533610
 H    -3.485124    -1.725547    -1.977016
 H    -1.033692    -1.572127     1.664591
 C    -1.634808    -3.013429     0.208786
 H    -0.760682    -2.853999    -0.444464
 H    -2.483648    -3.210933    -0.467041
 C    -1.437454    -4.213567     1.128080
 H    -1.271486    -5.121523     0.526222
 H    -0.519501    -4.066425     1.725469
 C    -2.620910    -4.404296     2.069162
 H    -2.436522    -5.243722     2.759096
 H    -3.513391    -4.678420     1.477826
 C    -2.914924    -3.128630     2.848773
 H    -2.068552    -2.910345     3.525811
 H    -3.799098    -3.264150     3.492789
 C    -3.129149    -1.935088     1.919545
 H    -4.023746    -2.121154     1.304631
 H    -3.346825    -1.040007     2.515401
 C     1.578792    -1.894550     1.679843
 H     0.937299    -1.997181     2.573391
 H     1.022427    -2.307200     0.819530
 C     2.863469    -2.670750     1.893838
 H     2.601411    -3.740421     1.978342
 H     3.492419    -2.588153     0.990730
 C     3.648183    -2.230103     3.121491
 H     3.051070    -2.445265     4.025373
 H     3.760399    -1.133249     3.096084
 C     5.012631    -2.889966     3.229004
 H     4.927096    -3.988079     3.265065
 H     5.642679    -2.639410     2.359823
 H     5.551033    -2.567945     4.133140
 H     3.298424    -1.231410    -1.011353
 C     4.557923    -0.004717     0.194798
 H     4.371767    -0.506363     1.153252
 H     4.717469     1.058853     0.429482
 C     5.813889    -0.557041    -0.474503
 H     6.681887    -0.444328     0.195822
 H     5.687536    -1.642887    -0.639530
 C     6.081680     0.131249    -1.809913
 H     6.960878    -0.314065    -2.303341
 H     6.336939     1.189775    -1.619446
 C     4.867990     0.072957    -2.732894
 H     4.684738    -0.971467    -3.042215
 H     5.062761     0.640697    -3.657221
 C     3.613799     0.603820    -2.045237
 H     3.750126     1.675140    -1.814834
 H     2.742580     0.533376    -2.716082
 H     0.566866     1.820054     1.044433
 C     1.072729     2.758278    -0.793934
 H     0.247745     2.280227    -1.348100
 H     1.917660     2.831245    -1.499364
 C     0.673334     4.157605    -0.338547
 H     0.431627     4.784754    -1.211900
 H    -0.251973     4.084302     0.257942
 C     1.764644     4.813476     0.501556
 H     1.432453     5.802743     0.857466
 H     2.650407     4.995337    -0.134257
 C     2.173273     3.934095     1.679064
 H     1.326655     3.849543     2.383629
 H     2.996227     4.403738     2.242247
 C     2.583563     2.538198     1.217176
 H     3.486837     2.630196     0.591055
 H     2.849073     1.901566     2.075007
