  78
scf done:    -2298.734908
 C     1.428161    -3.131014     0.230090
 H     1.480014    -3.921286    -0.529173
 H     2.452873    -2.853665     0.511410
 C     0.537728    -3.481133     1.404738
 H    -0.069266    -4.382367     1.237924
 H     1.083448    -3.593530     2.355457
 H    -0.209418    -2.655327     1.620960
Rh     0.158282    -1.534631    -0.199450
 O     2.115298     0.677039     1.714339
 C     3.470565    -0.461894    -0.317421
 C     1.581265     1.556580    -0.712979
 O    -1.937728     0.522710    -1.682770
 C    -3.186083    -0.871836     0.361986
 C    -1.589307     1.403560     0.886352
 P    -1.615725    -0.079807    -0.183880
 P     1.776586    -0.002564     0.230338
 C    -0.336007    -2.289853    -1.827833
 O    -0.517376    -2.624359    -2.916106
 C     1.730042     0.006717     2.908580
 H     0.729141    -0.438789     2.742708
 C     1.639361     1.060773     3.990889
 H     0.938482     1.851639     3.691143
 H     2.627153     1.515356     4.164309
 H     1.291170     0.618262     4.936342
 C     2.710461    -1.102269     3.244396
 H     2.782981    -1.827871     2.421231
 H     3.715493    -0.689771     3.422312
 H     2.390963    -1.641551     4.149060
 C     3.628759    -1.286689    -1.435612
 C     4.601413     0.042275     0.332520
 C     6.029560    -1.097146    -1.249334
 C     5.875950    -0.279786    -0.130011
 C     4.903580    -1.597382    -1.903021
 H     2.740005    -1.695253    -1.924695
 H     5.018385    -2.242894    -2.777218
 H     7.029727    -1.348037    -1.611253
 H     6.755946     0.112858     0.385824
 H     4.471802     0.688191     1.203255
 C     1.917808     2.795156    -0.158052
 C     1.097956     1.493049    -2.023806
 C     1.284204     3.894779    -2.215805
 C     0.953862     2.658950    -2.772640
 C     1.766882     3.959259    -0.908427
 H     2.276265     2.836781     0.871596
 H     2.024052     4.925523    -0.466851
 H     1.165701     4.809307    -2.802439
 H     0.571171     2.601355    -3.794293
 H     0.807634     0.526690    -2.443171
 C    -3.148205     1.171283    -2.085960
 H    -3.623429     1.634931    -1.201938
 C    -4.091526     0.153195    -2.699720
 H    -4.368755    -0.625895    -1.977387
 H    -3.606764    -0.330897    -3.561109
 H    -5.013379     0.644027    -3.046676
 C    -2.766476     2.259146    -3.069672
 H    -2.089820     2.994559    -2.613516
 H    -2.252975     1.816286    -3.936484
 H    -3.664042     2.785056    -3.427399
 C    -3.311692    -2.259181     0.217895
 C    -4.273678    -0.140612     0.861519
 C    -5.582652    -2.163987     1.031521
 C    -5.464910    -0.782799     1.189394
 C    -4.502736    -2.901893     0.549984
 H    -2.460377    -2.830281    -0.163458
 H    -4.586215    -3.984778     0.431794
 H    -6.517869    -2.666289     1.290738
 H    -6.306428    -0.201443     1.573867
 H    -4.187333     0.939077     1.003635
 C    -1.748512     1.254516     2.271676
 C    -1.321124     2.670803     0.363202
 C    -1.415915     3.626587     2.581014
 C    -1.238106     3.776884     1.208279
 C    -1.668997     2.360106     3.112381
 H    -1.949604     0.265819     2.694194
 H    -1.804508     2.233831     4.189215
 H    -1.352765     4.494624     3.241577
 H    -1.021909     4.760383     0.784871
 H    -1.154493     2.789304    -0.708418
