  86
scf done:    -2003.742982
 C     1.144820    -3.123562     0.632403
 H     0.937558    -4.067176     0.103395
 H     2.214348    -2.930260     0.455959
 C     0.881087    -3.324184     2.119883
 H     1.438994    -4.186928     2.531954
 H     1.169384    -2.446601     2.723105
 H    -0.185975    -3.507973     2.326935
Rh    -0.068008    -1.521667    -0.076613
 O     1.115509     0.966959     1.928003
 C     3.208974    -0.562804     1.094600
 C     1.891442     1.357209    -0.570572
 O    -1.115737     1.144505    -1.924949
 C    -3.205942    -0.404982    -1.138879
 C    -1.869971     1.461669     0.586234
 P    -1.525250     0.151568    -0.644127
 P     1.533584     0.017723     0.620953
 C    -1.009416    -2.825454    -0.993985
 O    -1.551432    -3.615780    -1.630651
 C     0.433355     0.372338     3.005969
 H    -0.318264    -0.358026     2.654324
 H     1.128389    -0.146148     3.689062
 H    -0.074005     1.171573     3.566022
 H     3.069639    -1.389867     1.809821
 H     3.701924     0.259469     1.635842
 C     4.020634    -1.033290    -0.108567
 H     3.364962    -1.605050    -0.788943
 H     4.368814    -0.158063    -0.686135
 C     5.229407    -1.901614     0.246153
 H     4.847365    -2.777207     0.804254
 C     5.903978    -2.412805    -1.020889
 H     5.198269    -2.974390    -1.652439
 H     6.749136    -3.078009    -0.785742
 H     6.297357    -1.575479    -1.621661
 C     6.221837    -1.167308     1.140129
 H     7.085810    -1.805379     1.382024
 H     5.767472    -0.852852     2.091764
 H     6.606590    -0.263583     0.637218
 H     0.913984     1.775705    -0.859616
 H     2.272886     0.848542    -1.471040
 C     2.830540     2.452641    -0.086593
 H     2.489734     2.798184     0.902543
 H     3.847257     2.046125     0.061682
 C     2.917797     3.653901    -1.032040
 H     1.893530     4.057261    -1.144611
 C     3.787238     4.745710    -0.419729
 H     3.412876     5.049882     0.570107
 H     3.818936     5.641504    -1.059107
 H     4.824341     4.393591    -0.289407
 C     3.422239     3.266392    -2.417619
 H     3.501188     4.148008    -3.072267
 H     2.755218     2.546627    -2.915835
 H     4.424116     2.808035    -2.355601
 C    -0.534737     0.553843    -3.063911
 H     0.177078    -0.242683    -2.780974
 H    -1.301472     0.116478    -3.727473
 H    -0.003336     1.341006    -3.618843
 H    -3.061305    -1.100715    -1.982846
 H    -3.765267     0.461248    -1.524502
 C    -3.933714    -1.109545    -0.000413
 H    -3.222165    -1.774945     0.521624
 H    -4.259154    -0.364873     0.749364
 C    -5.144691    -1.938441    -0.433767
 H    -4.778614    -2.689190    -1.159106
 C    -5.728366    -2.686169     0.758797
 H    -4.972698    -3.326067     1.240301
 H    -6.570737    -3.327848     0.457531
 H    -6.103335    -1.980827     1.519533
 C    -6.206930    -1.090810    -1.124175
 H    -7.071709    -1.703572    -1.422264
 H    -5.821061    -0.601709    -2.031299
 H    -6.576612    -0.300592    -0.448440
 H    -0.887015     1.868648     0.875353
 H    -2.241394     0.926321     1.475812
 C    -2.815851     2.571603     0.152752
 H    -2.501393     2.936029    -0.838427
 H    -3.837462     2.169941     0.025466
 C    -2.873497     3.753846     1.124093
 H    -1.845274     4.152746     1.215242
 C    -3.756939     4.859918     0.559294
 H    -3.410498     5.182535    -0.434844
 H    -3.767249     5.743017     1.216837
 H    -4.798483     4.513129     0.452256
 C    -3.338970     3.339979     2.515668
 H    -3.395538     4.208208     3.190262
 H    -2.660552     2.607827     2.979373
 H    -4.343865     2.886079     2.473430
