  78
scf done:    -2695.501164
 C    -0.002042    -2.594136     1.810187
 H     0.199751    -3.662910     1.629310
 H     0.915502    -2.193959     2.272516
 C    -1.167659    -2.437869     2.775969
 H    -2.093696    -2.883295     2.377847
 H    -0.965107    -2.921434     3.750014
 H    -1.389288    -1.379264     2.986057
Rh    -0.510362    -1.569982     0.017728
 O     2.163639    -0.056118     1.528315
 C     2.751652    -2.168293    -0.037921
 C     2.364890     0.406329    -1.148523
 O    -0.365121    -0.125399    -3.012069
 C    -2.947528    -0.853427    -2.470648
 C    -1.722212     1.447487    -1.198680
 P    -1.347374    -0.305974    -1.678402
 P     1.605681    -0.718883     0.113612
 C    -1.364007    -3.135847    -0.461155
 O    -1.701519    -4.168245    -0.850702
 C     1.259607     0.457729     2.483449
 H     0.213431     0.302255     2.172602
 H     1.422108    -0.046502     3.448331
 H     1.426439     1.538617     2.605412
 H     2.417134    -2.868594     0.740957
 H     2.498721    -2.630052    -1.005043
 C     4.216388    -1.876180     0.068142
 C     5.037224    -1.881226    -1.066788
 H     4.605479    -2.128339    -2.040565
 C     4.799448    -1.566254     1.305133
 H     4.173469    -1.546783     2.198631
 C     6.395978    -1.584886    -0.982243
 H     7.040786    -1.591727    -1.862793
 C     6.154369    -1.268528     1.407387
 H     6.616340    -1.028192     2.366730
 C     6.937662    -1.279605     0.259018
 F     8.236259    -0.994958     0.352647
 H     3.448814     0.209588    -1.119072
 H     1.977817     0.048874    -2.114915
 C     2.128756     1.878970    -0.994710
 C     1.493332     2.615501    -2.001339
 H     1.142548     2.096391    -2.894814
 C     2.612877     2.575778     0.123126
 H     3.135961     2.021359     0.904103
 C     1.321441     3.995398    -1.899297
 H     0.833243     4.573117    -2.686390
 C     2.445604     3.951891     0.244576
 H     2.823320     4.498433     1.110815
 C     1.796451     4.647719    -0.769141
 F     1.636781     5.965944    -0.659391
 C    -0.745231     0.566795    -4.175381
 H    -1.441242    -0.022023    -4.795773
 H    -1.209975     1.544075    -3.953376
 H     0.164823     0.746541    -4.766355
 H    -3.132230    -0.230237    -3.358805
 H    -2.776601    -1.885892    -2.812176
 C    -4.117525    -0.769181    -1.536267
 C    -4.412191    -1.804935    -0.638293
 H    -3.830922    -2.726324    -0.664915
 C    -4.917539     0.381324    -1.496404
 H    -4.736892     1.191163    -2.208211
 C    -5.440788    -1.683802     0.292086
 H    -5.669980    -2.487657     0.993742
 C    -5.949970     0.519672    -0.573346
 H    -6.570425     1.416589    -0.537817
 C    -6.191067    -0.514864     0.321666
 F    -7.170708    -0.389888     1.213645
 H    -0.906024     2.046351    -1.626760
 H    -2.658864     1.785346    -1.669887
 C    -1.767149     1.678679     0.287236
 C    -2.541329     0.878902     1.140162
 H    -3.119707     0.044667     0.738343
 C    -1.040947     2.736160     0.846633
 H    -0.417175     3.359338     0.202572
 C    -2.599977     1.136204     2.507941
 H    -3.204706     0.520060     3.175268
 C    -1.092166     3.007996     2.211225
 H    -0.527928     3.833198     2.649423
 C    -1.875058     2.201536     3.026893
 F    -1.926444     2.450809     4.335384
