  82
scf done:    -2599.534427
 C     0.837325    -2.878723     1.392486
 H     1.275290    -3.702678     0.809476
 H     1.656232    -2.465305     1.999930
 C    -0.290967    -3.369668     2.285352
 H    -1.092589    -3.858191     1.707907
 H     0.066833    -4.101817     3.033741
 H    -0.754850    -2.543127     2.851396
Rh    -0.081646    -1.401074     0.199666
 O     1.261972     0.999379     2.206596
 O     2.975232    -0.433533     1.180022
 O     1.679626     1.165316    -0.339329
 O    -0.997512     1.141670    -1.900760
 O    -2.889028    -0.313598    -1.257890
 O    -1.860198     1.219400     0.533162
 P    -1.409434     0.182784    -0.677152
 P     1.428170     0.086643     0.885834
 C    -0.440368    -2.771791    -1.032980
 O    -0.484544    -3.552542    -1.872659
 C     2.268602     1.727806     2.894346
 H     3.206244     1.156812     2.939680
 H     2.453134     2.694516     2.402982
 H     1.894060     1.901451     3.912003
 C     3.609154    -1.396098     0.437808
 C     3.296082    -1.630125    -0.899336
 H     2.526263    -1.031851    -1.390971
 C     4.599462    -2.139599     1.080619
 H     4.821198    -1.933909     2.129151
 C     3.945587    -2.648333    -1.608297
 C     3.547050    -2.929233    -3.027633
 H     2.508126    -3.294626    -3.072585
 H     3.594874    -2.018310    -3.644288
 H     4.194264    -3.688854    -3.487392
 C     5.262976    -3.132709     0.369767
 H     6.039264    -3.721712     0.864066
 C     4.934417    -3.393756    -0.961296
 H     5.451781    -4.188543    -1.504406
 C     2.470871     2.283508    -0.314354
 C     3.859043     2.185057    -0.245116
 H     4.323996     1.198823    -0.204275
 C     1.843679     3.526463    -0.402076
 H     0.756859     3.561951    -0.487881
 C     4.647403     3.341425    -0.225944
 C     6.143629     3.230280    -0.172237
 H     6.463371     2.437630     0.520314
 H     6.552695     2.976682    -1.164196
 H     6.607550     4.174534     0.145765
 C     2.625554     4.677056    -0.383576
 H     2.146097     5.657066    -0.445870
 C     4.014049     4.587846    -0.285969
 H     4.617463     5.498998    -0.266171
 C    -1.844623     1.908138    -2.742613
 H    -2.790102     1.382660    -2.936620
 H    -2.055828     2.887236    -2.288165
 H    -1.304719     2.053961    -3.687799
 C    -3.516511    -1.405718    -0.712725
 C    -3.588084    -1.586250     0.668208
 H    -3.151639    -0.837231     1.333720
 C    -4.078284    -2.335154    -1.586393
 H    -3.995083    -2.171909    -2.661965
 C    -4.216274    -2.718734     1.201416
 C    -4.252469    -2.924986     2.687183
 H    -4.554727    -2.006395     3.212428
 H    -4.949949    -3.726702     2.966645
 H    -3.254010    -3.199887     3.063980
 C    -4.714117    -3.453410    -1.057943
 H    -5.156586    -4.190451    -1.732215
 C    -4.780147    -3.647548     0.321885
 H    -5.276438    -4.534817     0.722787
 C    -2.562421     2.389773     0.410403
 C    -3.889656     2.398964    -0.013377
 H    -4.375058     1.454562    -0.265342
 C    -1.913621     3.573713     0.762040
 H    -0.884071     3.520675     1.119548
 C    -4.585243     3.608848    -0.125321
 C    -6.018951     3.611998    -0.570761
 H    -6.163905     2.981374    -1.460978
 H    -6.675992     3.211248     0.218309
 H    -6.365270     4.627213    -0.809229
 C    -2.603330     4.776776     0.653064
 H    -2.105321     5.711727     0.921265
 C    -3.924200     4.796965     0.204779
 H    -4.454505     5.748718     0.118450
