  90
scf done:    -2778.417876
 C    -1.212498     1.466601    -2.982355
 H    -1.390386     0.974257    -3.953540
 H    -2.212520     1.643493    -2.556795
 C    -0.506547     2.794460    -3.222231
 H     0.454393     2.661301    -3.743664
 H    -1.119727     3.481750    -3.835469
 H    -0.284197     3.329968    -2.283405
Rh     0.020782     0.341633    -1.671788
 C    -2.328114     1.499957     0.840253
 C    -3.247185    -0.699358    -0.971262
 C    -1.466500    -1.255982     1.100812
 C     2.058113    -1.599641     0.835614
 C     3.409060     0.384644    -0.724755
 C     1.415213     1.268213     1.109909
 P     1.721813    -0.045471    -0.131037
 P    -1.760522     0.038715    -0.171662
 C     0.895357    -0.149288    -3.212142
 O     1.304849    -0.591454    -4.196158
 H    -1.453835     1.659688     1.500578
 C    -3.573094     1.328151     1.709593
 H    -3.501871     0.427858     2.339552
 H    -4.448022     1.187065     1.053137
 C    -3.805155     2.561305     2.579218
 H    -4.703169     2.417025     3.201560
 H    -2.956166     2.681089     3.277195
 C    -3.938801     3.817199     1.727108
 H    -4.075754     4.704858     2.365399
 H    -4.848750     3.735674     1.105492
 C    -2.723918     3.992647     0.825173
 H    -1.839584     4.192668     1.454663
 H    -2.848022     4.872141     0.172914
 C    -2.456775     2.754491    -0.025444
 H    -3.282455     2.615691    -0.745792
 H    -1.543393     2.890351    -0.621518
 C    -3.255607    -0.913264    -2.353914
 H    -2.384872    -0.607475    -2.936241
 C    -4.335233    -1.165619    -0.215828
 H    -4.326040    -1.081501     0.871248
 C    -4.336237    -1.529979    -2.980585
 H    -4.348991    -1.700631    -4.058490
 C    -5.423063    -1.778434    -0.827141
 H    -6.273738    -2.144361    -0.249459
 C    -5.412672    -1.943820    -2.208563
 F    -6.450455    -2.532405    -2.796433
 C    -1.403201    -2.588206     0.662326
 H    -1.586484    -2.816412    -0.390689
 C    -1.240724    -0.990403     2.455386
 H    -1.293251     0.030182     2.833888
 C    -1.109616    -3.622258     1.541590
 H    -1.063502    -4.660270     1.208060
 C    -0.926425    -2.016519     3.347890
 H    -0.738483    -1.817456     4.404625
 C    -0.856525    -3.319059     2.875856
 F    -0.530496    -4.301802     3.712825
 H     1.167619    -1.718595     1.477295
 C     3.313375    -1.574262     1.707918
 H     3.300245    -0.722011     2.405000
 H     4.194250    -1.422210     1.061367
 C     3.475440    -2.886804     2.469624
 H     4.382601    -2.848719     3.094246
 H     2.623169    -3.019464     3.161225
 C     3.535190    -4.069546     1.510476
 H     3.629406    -5.015204     2.068148
 H     4.443618    -3.982024     0.887389
 C     2.305134    -4.105910     0.611596
 H     1.417192    -4.309248     1.233236
 H     2.377614    -4.933941    -0.112023
 C     2.099017    -2.788510    -0.129690
 H     2.930068    -2.643583    -0.843212
 H     1.174797    -2.811798    -0.728769
 C     4.263238     1.225504     0.001201
 H     3.916294     1.686220     0.928334
 C     3.888687    -0.194398    -1.907352
 H     3.242651    -0.840450    -2.503237
 C     5.557483     1.488315    -0.439247
 H     6.227689     2.147328     0.115645
 C     5.184472     0.048431    -2.353219
 H     5.563454    -0.396929    -3.274651
 C     6.003016     0.892116    -1.612386
 F     7.239313     1.138147    -2.037583
 C     1.235318     2.566735     0.599918
 H     1.376368     2.745525    -0.470512
 C     1.226476     1.056381     2.478682
 H     1.361440     0.062597     2.905817
 C     0.866114     3.619367     1.426712
 H     0.722402     4.628841     1.037900
 C     0.836293     2.101340     3.318864
 H     0.671227     1.945403     4.386620
 C     0.653551     3.366346     2.778761
 F     0.250240     4.361075     3.566404
