 114
scf done:    -2396.123426
 C    -1.315342     0.976104    -2.979392
 H    -1.543317     0.298966    -3.819330
 H    -2.292634     1.273378    -2.568988
 C    -0.596284     2.207723    -3.516417
 H     0.299119     1.936702    -4.098576
 H    -1.243607     2.812406    -4.180375
 H    -0.253621     2.882809    -2.713087
Rh    -0.062590     0.117521    -1.483922
 C    -2.195365     1.665433     0.868922
 C    -3.501659    -0.370479    -0.871281
 C    -1.986988    -1.183383     1.453091
 C     2.128237    -1.852394     0.541144
 C     3.349338     0.395978    -0.963136
 C     1.664711     0.965778     1.467155
 P     1.788746    -0.109536    -0.056267
 P    -1.897357     0.024471     0.023169
 C     0.839050    -0.584376    -2.917045
 O     1.300355    -1.174285    -3.797672
 H    -1.287296     1.754255     1.495212
 C    -3.403613     1.824161     1.790402
 H    -3.456704     1.004863     2.525075
 H    -4.327902     1.772156     1.190751
 C    -3.366766     3.172591     2.506174
 H    -4.242818     3.274336     3.167349
 H    -2.476769     3.210889     3.161068
 C    -3.312697     4.325197     1.509874
 H    -3.257498     5.290573     2.038715
 H    -4.253960     4.342104     0.930797
 C    -2.137468     4.173699     0.551212
 H    -1.193977     4.290015     1.112908
 H    -2.148425     4.976955    -0.203111
 C    -2.138091     2.814270    -0.140367
 H    -3.007429     2.750921    -0.819145
 H    -1.247518     2.702738    -0.778095
 H    -3.747384     0.601076    -1.338409
 C    -4.712494    -0.792808    -0.033219
 H    -4.873665    -0.126426     0.824719
 H    -4.535708    -1.800195     0.383014
 C    -5.972018    -0.833827    -0.897880
 H    -6.835892    -1.146693    -0.288430
 H    -6.195630     0.189340    -1.250941
 C    -5.806506    -1.757989    -2.099054
 H    -6.703807    -1.720470    -2.738196
 H    -5.725320    -2.800210    -1.739863
 C    -4.556499    -1.413045    -2.901728
 H    -4.682633    -0.425014    -3.380397
 H    -4.414077    -2.136877    -3.720537
 C    -3.317938    -1.375775    -2.014340
 H    -3.152447    -2.382108    -1.592629
 H    -2.414868    -1.135270    -2.589281
 H    -3.032931    -1.124692     1.800877
 C    -1.104528    -0.866517     2.658816
 H    -1.284857     0.155669     3.026457
 H    -0.047858    -0.912534     2.357612
 C    -1.320252    -1.870940     3.786862
 H    -0.670968    -1.618475     4.641265
 H    -2.360427    -1.794023     4.152181
 C    -1.053334    -3.294119     3.313037
 H    -1.235506    -4.014787     4.126551
 H     0.015421    -3.391283     3.046829
 C    -1.905515    -3.633266     2.096762
 H    -2.968767    -3.661148     2.397296
 H    -1.663401    -4.642227     1.724569
 C    -1.730939    -2.614001     0.975259
 H    -0.709394    -2.670136     0.567803
 H    -2.398562    -2.866628     0.139719
 H     1.403264    -1.962469     1.369683
 C     3.511428    -2.230826     1.076697
 H     3.844768    -1.540358     1.863082
 H     4.246536    -2.156633     0.256942
 C     3.519110    -3.661966     1.610851
 H     4.520681    -3.911763     1.997551
 H     2.828594    -3.728804     2.471980
 C     3.093719    -4.661011     0.542840
 H     3.067537    -5.682354     0.956283
 H     3.850676    -4.670489    -0.262202
 C     1.740816    -4.285730    -0.048136
 H     0.960818    -4.405865     0.726256
 H     1.470781    -4.972742    -0.866277
 C     1.718673    -2.847366    -0.552774
 H     2.409596    -2.747042    -1.409303
 H     0.724109    -2.579632    -0.942856
 H     3.531226    -0.502772    -1.586202
 C     4.616644     0.665591    -0.143927
 H     4.810580    -0.129191     0.585857
 H     4.478943     1.594087     0.436244
 C     5.829405     0.831125    -1.058535
 H     6.730113     1.030105    -0.454706
 H     6.012708    -0.124142    -1.583438
 C     5.619784     1.938523    -2.084221
 H     6.482315     1.998379    -2.767881
 H     5.572247     2.909902    -1.558822
 C     4.326459     1.732784    -2.864217
 H     4.414683     0.831567    -3.497512
 H     4.152166     2.577076    -3.550778
 C     3.131717     1.566069    -1.932360
 H     2.990358     2.496296    -1.357173
 H     2.205010     1.419530    -2.504435
 H     0.629967     0.763016     1.781701
 C     1.692959     2.452412     1.102057
 H     1.008440     2.640529     0.257601
 H     2.700414     2.736545     0.756797
 C     1.323037     3.320272     2.300710
 H     1.374825     4.386051     2.025096
 H     0.272489     3.124273     2.581499
 C     2.218240     3.027993     3.498337
 H     1.922551     3.646138     4.361435
 H     3.257882     3.312334     3.253689
 C     2.175274     1.549132     3.862085
 H     1.154246     1.288284     4.196471
 H     2.842684     1.339350     4.713732
 C     2.550040     0.662706     2.676134
 H     3.611290     0.819722     2.424231
 H     2.447351    -0.394381     2.966099
