  90
scf done:    -2380.201943
 C     1.688341    -0.055204    -2.826757
 H     1.349833     0.641426    -3.612219
 H     2.491506     0.482734    -2.295482
 C     2.263811    -1.314797    -3.460331
 H     1.524310    -1.836398    -4.088962
 H     3.137607    -1.092330    -4.101168
 H     2.606892    -2.040603    -2.705595
Rh     0.035611    -0.530803    -1.553723
 C     3.195318    -0.392549     0.137450
 O     1.694614     1.740171     0.176905
 O     0.934605    -0.288109     1.618578
 C    -2.308135     0.186790     0.992145
 O    -3.066772    -1.281114    -1.153621
 O    -1.749439    -2.344312     0.766194
 P    -1.723195    -1.033311    -0.231229
 P     1.444990     0.122281     0.113009
 C    -0.959786    -0.666910    -3.137449
 O    -1.554084    -0.677447    -4.115908
 C     3.494358    -1.739447    -0.095160
 C     4.236894     0.509456     0.383028
 C     5.846348    -1.283905     0.193675
 C     5.556243     0.062286     0.412833
 C     4.813671    -2.184716    -0.062802
 H     2.688892    -2.443275    -0.315690
 H     5.035823    -3.238113    -0.247954
 H     6.882222    -1.630954     0.214623
 H     6.364618     0.771945     0.604854
 H     4.003011     1.563190     0.543662
 C     0.748326     2.663530    -0.350538
 H     0.188948     2.168280    -1.167291
 H     0.030822     2.929188     0.443444
 C     1.476513     3.890290    -0.848613
 H     0.715425     4.625297    -1.165349
 H     2.016345     4.353469    -0.003067
 C     2.441744     3.613296    -1.992103
 H     1.888732     3.148417    -2.826181
 H     3.172379     2.855279    -1.665780
 C     3.167627     4.857169    -2.476220
 H     2.460720     5.620021    -2.841235
 H     3.756686     5.318067    -1.666532
 H     3.859873     4.625878    -3.299756
 C     1.660014    -0.070266     2.822906
 H     1.172561    -0.718940     3.567873
 H     2.697897    -0.424995     2.700721
 C     1.639579     1.374917     3.283782
 H     2.184801     1.424895     4.243126
 H     2.207664     1.990460     2.568460
 C     0.236404     1.939680     3.442767
 H    -0.299250     1.374777     4.225361
 H    -0.328245     1.755596     2.515592
 C     0.216171     3.422848     3.766886
 H     0.750966     3.643764     4.705042
 H     0.700147     4.009225     2.968352
 H    -0.814297     3.794796     3.872782
 C    -2.475310     1.502084     0.543493
 C    -2.641061    -0.142661     2.308567
 C    -3.339579     2.138444     2.704850
 C    -3.157765     0.832883     3.159933
 C    -2.992648     2.474600     1.395300
 H    -2.207793     1.753860    -0.486699
 H    -3.127805     3.498036     1.037132
 H    -3.747130     2.899519     3.374666
 H    -3.420315     0.572351     4.188242
 H    -2.496517    -1.168405     2.651600
 C    -4.335539    -1.648188    -0.624978
 H    -4.780617    -2.319975    -1.377129
 H    -4.203338    -2.230611     0.302490
 C    -5.246083    -0.456678    -0.385853
 H    -6.240007    -0.851783    -0.109270
 H    -4.892853     0.112517     0.488722
 C    -5.368774     0.476011    -1.581368
 H    -5.789993    -0.077087    -2.439576
 H    -4.356904     0.780840    -1.894232
 C    -6.211698     1.705129    -1.285766
 H    -7.237736     1.430751    -0.990951
 H    -5.777923     2.288714    -0.457219
 H    -6.283779     2.368916    -2.160741
 C    -1.187860    -3.570973     0.317149
 H    -1.827301    -4.368706     0.729952
 H    -1.241199    -3.635275    -0.783569
 C     0.241566    -3.724914     0.786818
 H     0.633677    -4.682217     0.399858
 H     0.832519    -2.925432     0.310556
 C     0.405266    -3.650370     2.296600
 H    -0.207505    -4.438482     2.770211
 H    -0.009905    -2.688772     2.637905
 C     1.851065    -3.779654     2.746650
 H     2.286600    -4.742742     2.433974
 H     2.475330    -2.982887     2.312976
 H     1.942684    -3.715257     3.841728
