 110
scf done:    -2243.796711
 C     0.294802     1.454701     2.693247
 H     0.968157     1.060141     3.473428
 H     0.799532     2.351286     2.299295
 C    -1.029505     1.866751     3.325610
 H    -1.512664     1.028035     3.852810
 H    -0.906164     2.684236     4.061804
 H    -1.756047     2.225394     2.576616
Rh    -0.097393     0.033241     1.159874
 C     0.255634     2.719459    -1.165869
 C     2.628153     2.163716     0.417496
 C     1.899521     0.445584    -1.782580
 C    -0.119511    -2.812168    -1.060305
 C    -2.568937    -2.217585     0.371132
 C    -1.794695    -0.627996    -1.929199
 P    -1.101679    -1.380588    -0.387761
 P     1.160436     1.321349    -0.331162
 C    -0.357148    -1.158061     2.543288
 O    -0.376298    -1.940915     3.391096
 H    -0.425215     2.195440    -1.862808
 C     1.107303     3.694698    -1.979039
 H     1.706944     3.161159    -2.733480
 H     1.823931     4.199953    -1.308403
 C     0.239918     4.752334    -2.658088
 H     0.874164     5.452525    -3.225799
 H    -0.419030     4.260171    -3.396983
 C    -0.615147     5.504576    -1.645239
 H    -1.254943     6.243458    -2.154471
 H     0.045560     6.078034    -0.969932
 C    -1.462817     4.542634    -0.821784
 H    -2.199216     4.055700    -1.484781
 H    -2.044112     5.089690    -0.062170
 C    -0.612097     3.469121    -0.152373
 H     0.036894     3.940806     0.607185
 H    -1.242016     2.752014     0.398209
 H     3.282700     2.530062    -0.391001
 H     2.230256     3.059021     0.923631
 C     3.403148     1.320739     1.425293
 H     2.687875     0.724018     2.014760
 H     4.037870     0.590381     0.897905
 C     4.267244     2.156695     2.357871
 H     3.620104     2.869388     2.901119
 H     4.969026     2.775101     1.767570
 C     5.048722     1.322952     3.363296
 H     4.339682     0.705774     3.942491
 H     5.690777     0.607331     2.819248
 C     5.897617     2.155293     4.310420
 H     6.448103     1.524805     5.025170
 H     5.275604     2.853240     4.893771
 H     6.637958     2.758167     3.759714
 H     1.056366     0.002144    -2.337075
 H     2.359183     1.187942    -2.456034
 C     2.913546    -0.633138    -1.428310
 H     3.825478    -0.160735    -1.028496
 H     2.516992    -1.258811    -0.609700
 C     3.293042    -1.509609    -2.613835
 H     3.585896    -0.872152    -3.467918
 H     2.401785    -2.068038    -2.955801
 C     4.416275    -2.490595    -2.307880
 H     5.335551    -1.925135    -2.075071
 H     4.170886    -3.044849    -1.385116
 C     4.683618    -3.472276    -3.436683
 H     5.513118    -4.154207    -3.196254
 H     4.942748    -2.948546    -4.370963
 H     3.794594    -4.090702    -3.643275
 H     0.625500    -2.322584    -1.714291
 C    -0.891133    -3.830237    -1.901285
 H    -1.413471    -3.337002    -2.736217
 H    -1.670328    -4.302814    -1.278154
 C     0.034302    -4.918631    -2.440356
 H    -0.544764    -5.648183    -3.029748
 H     0.761449    -4.462780    -3.137438
 C     0.787691    -5.616264    -1.314357
 H     1.471673    -6.378094    -1.722337
 H     0.064665    -6.156617    -0.676614
 C     1.554953    -4.611171    -0.463895
 H     2.352062    -4.156365    -1.077739
 H     2.060588    -5.117639     0.373935
 C     0.647985    -3.506663     0.067933
 H    -0.070368    -3.942647     0.785514
 H     1.224917    -2.759359     0.635723
 H    -3.150776    -2.746758    -0.401541
 H    -2.132651    -2.993719     1.023542
 C    -3.461452    -1.305989     1.211270
 H    -2.836321    -0.526873     1.683413
 H    -4.172508    -0.769113     0.562360
 C    -4.228406    -2.050536     2.294175
 H    -3.504191    -2.556567     2.958243
 H    -4.836208    -2.854830     1.839506
 C    -5.123127    -1.143261     3.126719
 H    -4.505230    -0.340575     3.566638
 H    -5.843680    -0.634332     2.461645
 C    -5.871376    -1.876461     4.228023
 H    -6.505884    -1.193862     4.813566
 H    -5.172763    -2.363124     4.927438
 H    -6.522647    -2.663506     3.814276
 H    -0.931486    -0.250151    -2.503044
 H    -2.260002    -1.412451    -2.548487
 C    -2.785875     0.502595    -1.684597
 H    -3.729631     0.085552    -1.297968
 H    -2.405408     1.164812    -0.886762
 C    -3.080267     1.321919    -2.933429
 H    -3.340600     0.645803    -3.768040
 H    -2.157914     1.842264    -3.252813
 C    -4.195742     2.340133    -2.742535
 H    -5.140142     1.805892    -2.538468
 H    -3.992395     2.933876    -1.834228
 C    -4.373063     3.270526    -3.930917
 H    -5.199512     3.979879    -3.773797
 H    -4.588266     2.706934    -4.853057
 H    -3.459368     3.860072    -4.112824
