  82
scf done:    -4513.075530
 C    -1.123113    -3.460149     1.444029
 H    -1.414978    -4.352988     0.868776
 H    -0.133879    -3.700386     1.870446
 C    -2.125136    -3.189962     2.557558
 H    -2.214367    -4.049013     3.248359
 H    -1.835404    -2.320622     3.170736
 H    -3.133453    -2.987496     2.161264
Rh    -1.139761    -1.705221     0.230139
 C     0.802401    -1.116721     3.069664
 O     2.048637    -2.333208     1.097580
 O     1.493173     0.150796     0.736192
 C    -0.120307     0.834663    -2.051734
 O    -2.666531     0.783470    -1.485483
 O    -1.135781     1.476168     0.457983
 P    -1.252202     0.312849    -0.736609
 P     0.796228    -1.259053     1.268052
 C    -2.357407    -2.599444    -0.899496
 O    -2.997164    -3.186660    -1.645435
 C     0.081890    -0.041304     3.606122
 C     1.401503    -2.057447     3.912425
 C     0.582845    -0.835070     5.830012
 C     1.287240    -1.912530     5.293975
 C    -0.017609     0.101255     4.986807
 H    -0.397682     0.678162     2.934896
 H    -0.570457     0.943883     5.408082
 H     0.497447    -0.725413     6.913706
 H     1.751790    -2.646597     5.956396
 H     1.959508    -2.890874     3.481387
 C     2.446660    -2.679874    -0.175839
 C     3.658497    -2.183236    -0.651574
 H     4.272956    -1.557278    -0.003034
 C     1.644706    -3.492777    -0.976628
 H     0.699968    -3.869366    -0.582629
 C     4.058794    -2.469324    -1.953063
 H     4.997849    -2.075449    -2.344497
 C     2.040359    -3.774075    -2.281774
 H     1.414922    -4.389791    -2.929729
 C     3.237131    -3.247944    -2.766761
Cl     3.699591    -3.540558    -4.411803
 C     2.767920     0.616868     0.886255
 C     3.263213     1.395016    -0.163690
 H     2.633414     1.562899    -1.039063
 C     3.558005     0.365573     2.008603
 H     3.174508    -0.237465     2.830753
 C     4.547877     1.920750    -0.095582
 H     4.943073     2.525581    -0.913198
 C     4.848030     0.887825     2.072607
 H     5.476161     0.695764     2.943843
 C     5.339888     1.661923     1.023512
Cl     6.945088     2.307256     1.108787
 C    -0.183280     2.082082    -2.689045
 C     0.842311    -0.101220    -2.448632
 C     1.706316     1.463374    -4.066227
 C     1.751452     0.210018    -3.457852
 C     0.739026     2.395223    -3.683822
 H    -0.952708     2.805239    -2.415219
 H     0.695561     3.371569    -4.171944
 H     2.421139     1.713283    -4.854149
 H     2.488677    -0.532999    -3.769410
 H     0.869216    -1.080370    -1.963308
 C    -3.889079     0.392005    -1.017413
 C    -4.895783     0.178156    -1.959350
 H    -4.665711     0.322561    -3.016222
 C    -4.148845     0.205817     0.343416
 H    -3.364218     0.381321     1.081817
 C    -6.161029    -0.223807    -1.547556
 H    -6.953709    -0.397912    -2.276687
 C    -5.413686    -0.207071     0.755556
 H    -5.624523    -0.363218     1.814516
 C    -6.414394    -0.419922    -0.189418
Cl    -7.987607    -0.932071     0.324661
 C    -1.055089     2.826978     0.254553
 C    -2.201156     3.571597    -0.026597
 H    -3.167986     3.070545    -0.095082
 C     0.186559     3.452061     0.364006
 H     1.065757     2.848430     0.590685
 C    -2.098858     4.946047    -0.223368
 H    -2.984465     5.542463    -0.448067
 C     0.290314     4.825717     0.172286
 H     1.256621     5.326239     0.250730
 C    -0.852893     5.565976    -0.128652
Cl    -0.725689     7.275402    -0.379448
