  86
scf done:    -2603.295073
 C    -1.534392    -0.485097    -3.513378
 H    -1.034030    -0.555766    -4.491862
 H    -2.149277    -1.392361    -3.418474
 C    -2.409961     0.756981    -3.479857
 H    -3.014403     0.862651    -4.400329
 H    -3.123730     0.728645    -2.640669
 H    -1.820121     1.686522    -3.386466
Rh    -0.109095    -0.268763    -1.981245
 C    -2.153412     0.889511     0.723926
 C    -3.393778    -1.258382    -0.767317
 C    -1.238406    -1.877423     0.853665
 C     2.187607    -0.608956     0.765113
 C     3.128473     0.998864    -1.412813
 C     1.230549     2.105806     0.285840
 P     1.574998     0.503902    -0.547477
 P    -1.747745    -0.558122    -0.320093
 C     1.085258    -1.058691    -3.132585
 O     1.792681    -1.717833    -3.761297
 C    -2.884821     1.951518     0.161370
 H    -3.297181     1.856584    -0.845885
 C    -1.608059     1.078926     1.994406
 H    -1.032460     0.278277     2.460378
 C    -3.072659     3.137765     0.849558
 H    -3.637761     3.963196     0.412496
 C    -1.765828     2.277945     2.688564
 H    -1.300335     2.388274     3.667777
 C    -2.494272     3.321890     2.113852
 O    -2.672233     4.529511     2.681654
 C    -2.081556     4.778873     3.927111
 H    -0.983769     4.669836     3.885690
 H    -2.328710     5.815005     4.190848
 H    -2.477123     4.108179     4.710257
 C    -3.381372    -2.439226    -1.522870
 C    -4.620703    -0.730276    -0.355117
 C    -5.793793    -2.524939    -1.473810
 C    -5.813876    -1.359340    -0.712013
 C    -4.572051    -3.068298    -1.872154
 H    -2.423812    -2.871235    -1.825946
 H    -4.545637    -3.988367    -2.460823
 H    -6.729639    -3.015353    -1.752318
 H    -6.765936    -0.934750    -0.383996
 H    -4.652196     0.171038     0.259625
 C    -0.214528    -2.749169     0.473368
 C    -1.929462    -2.109717     2.050025
 C    -0.533867    -4.030961     2.494622
 C    -1.565914    -3.171191     2.874083
 C     0.129468    -3.826711     1.287424
 H     0.303651    -2.563589    -0.472250
 H     0.929757    -4.502050     0.977469
 H    -0.251246    -4.864877     3.141674
 H    -2.101500    -3.338309     3.811841
 H    -2.762955    -1.462208     2.333977
 C     1.734442    -0.544021     2.090744
 H     1.089837     0.278500     2.403299
 C     3.002616    -1.685782     0.401573
 H     3.356448    -1.775220    -0.629476
 C     2.085051    -1.513679     3.016568
 H     1.721543    -1.474265     4.044740
 C     3.371284    -2.662519     1.323879
 H     4.008585    -3.485270     0.999145
 C     2.901849    -2.587081     2.640556
 O     3.169231    -3.497206     3.597036
 C     3.954268    -4.608978     3.269851
 H     4.968257    -4.316534     2.944515
 H     4.036166    -5.216147     4.180219
 H     3.490487    -5.219449     2.474653
 C     3.030847     1.479484    -2.722676
 C     4.374958     1.007744    -0.775364
 C     5.399311     1.949029    -2.751470
 C     5.504203     1.474342    -1.444318
 C     4.159362     1.954772    -3.387542
 H     2.057739     1.470994    -3.222002
 H     4.068675     2.324297    -4.411700
 H     6.286480     2.313452    -3.275077
 H     6.473555     1.467831    -0.939723
 H     4.466799     0.639744     0.249165
 C     0.254051     2.925482    -0.287544
 C     1.979127     2.588680     1.366401
 C     0.756630     4.672401     1.299810
 C     1.734145     3.860976     1.877170
 C     0.021390     4.204439     0.213076
 H    -0.326994     2.547906    -1.134401
 H    -0.747200     4.833210    -0.240837
 H     0.570432     5.674310     1.694537
 H     2.322102     4.227307     2.722591
 H     2.765492     1.971863     1.807408
