  94
scf done:    -2756.517576
 C    -1.317662    -2.569457    -1.950798
 H    -1.142987    -3.650729    -1.883527
 H    -2.398355    -2.381672    -1.967889
 C    -0.556289    -1.904325    -3.077396
 H     0.012401    -2.606204    -3.706869
 H    -1.197272    -1.282921    -3.720947
 H     0.228577    -1.181773    -2.681941
Rh    -0.169126    -1.474996    -0.604268
 O    -2.114853     1.182934    -1.696350
 C    -3.581230    -0.644076    -0.584623
 C    -2.049307     1.012969     1.083441
 O     1.652020    -0.634670     1.977270
 C     3.249837    -1.051602    -0.287210
 C     1.878914     1.411887     0.209403
 P     1.638087    -0.399809     0.343719
 P    -1.895679     0.064656    -0.485738
 C     0.068460    -2.937798     0.492074
 O     0.051903    -3.763522     1.303040
 C    -1.026736     1.958670    -2.171948
 H    -0.089196     1.405620    -1.977357
 C    -0.988629     3.291888    -1.447266
 H    -0.781009     3.152427    -0.376628
 H    -1.959500     3.799408    -1.551096
 H    -0.200959     3.938989    -1.858781
 C    -1.203919     2.109613    -3.669798
 H    -1.216741     1.124895    -4.158502
 H    -2.154597     2.618744    -3.893008
 H    -0.385282     2.705085    -4.102434
 C    -4.483826    -0.286100    -1.583346
 H    -4.183177     0.483974    -2.294815
 C    -3.949686    -1.630927     0.351612
 O    -3.034374    -1.915289     1.292605
 C    -3.239440    -2.982118     2.173735
 H    -4.087795    -2.791494     2.854632
 H    -2.317195    -3.081463     2.758813
 H    -3.415317    -3.926500     1.630782
 C    -5.736987    -0.895199    -1.669073
 H    -6.433423    -0.605560    -2.459079
 C    -5.202059    -2.246017     0.266701
 H    -5.491226    -3.012247     0.986453
 C    -6.088391    -1.873321    -0.744503
 H    -7.065427    -2.359757    -0.802639
 C    -1.271407     0.614915     2.168691
 H    -0.584803    -0.223830     2.035506
 C    -2.971650     2.068146     1.259836
 O    -3.748740     2.381513     0.209578
 C    -4.733494     3.362390     0.344247
 H    -5.456069     3.112468     1.140960
 H    -5.263981     3.403106    -0.615616
 H    -4.300008     4.356373     0.555336
 C    -1.358734     1.256248     3.404298
 H    -0.738442     0.921298     4.238275
 C    -3.047752     2.727590     2.492506
 H    -3.743772     3.554680     2.633958
 C    -2.240524     2.320530     3.554977
 H    -2.317449     2.843406     4.511921
 C     2.782500    -0.691050     2.852911
 H     3.571714    -0.028896     2.463190
 C     3.290329    -2.119571     2.927176
 H     3.626431    -2.472932     1.942819
 H     2.486215    -2.786758     3.273451
 H     4.136962    -2.193310     3.626835
 C     2.316519    -0.179241     4.201506
 H     1.968311     0.861316     4.133383
 H     1.485909    -0.798203     4.574484
 H     3.136544    -0.220749     4.933848
 C     3.199789    -2.229867    -1.035573
 H     2.223722    -2.711278    -1.156053
 C     4.500345    -0.410414    -0.139389
 O     4.533817     0.716336     0.599101
 C     5.670996     1.531293     0.593942
 H     6.531921     1.044135     1.084440
 H     5.402449     2.436071     1.153879
 H     5.957852     1.817874    -0.432485
 C     4.337766    -2.778511    -1.625263
 H     4.264690    -3.703333    -2.200782
 C     5.642748    -0.947353    -0.741309
 H     6.607326    -0.451385    -0.630267
 C     5.557516    -2.128626    -1.477416
 H     6.461420    -2.538026    -1.935622
 C     1.665833     2.259730     1.292042
 H     1.337146     1.829803     2.238634
 C     2.263290     1.968885    -1.024614
 O     2.386335     1.089987    -2.043102
 C     2.837513     1.528326    -3.292365
 H     2.148321     2.265194    -3.740364
 H     2.879349     0.641024    -3.936139
 H     3.845880     1.972913    -3.226561
 C     1.869627     3.636576     1.177724
 H     1.693143     4.286743     2.036990
 C     2.497097     3.339273    -1.140809
 H     2.815200     3.770936    -2.090372
 C     2.300866     4.167425    -0.032706
 H     2.474869     5.241626    -0.132125
