  82
scf done:    -3071.956988
 C     1.223344    -3.236908     0.771369
 H     1.427319    -4.106246     0.135930
 H     2.163741    -2.908924     1.232043
 C     0.089718    -3.430857     1.753921
 H    -0.329045    -4.448108     1.751977
 H     0.354706    -3.147912     2.783297
 H    -0.803662    -2.773579     1.504634
Rh     0.060778    -1.764096    -0.150340
 C     1.403770     0.301939     2.465098
 O     3.052747    -0.499790     0.630989
 O     1.289586     1.226031    -0.088446
 C    -1.717531     0.438384    -2.342634
 O    -3.125151    -1.014638    -0.653525
 O    -1.771236     0.950471     0.315150
 P    -1.592962    -0.352363    -0.720547
 P     1.411513    -0.233746     0.728797
 C     0.095036    -2.680627    -1.794468
 O     0.253804    -3.109559    -2.848843
 C     0.158740     0.318475     3.104148
 C     2.547077     0.724796     3.152865
 C     1.193984     1.197183     5.098411
 C     2.438230     1.170232     4.467293
 C     0.054111     0.771053     4.417361
 H    -0.727515    -0.013553     2.556174
 H    -0.919507     0.787610     4.912723
 H     1.113535     1.549306     6.129774
 H     3.330396     1.502698     5.003195
 H     3.514930     0.705080     2.649386
 C     3.655958    -1.131957    -0.420228
 C     3.239012    -0.959277    -1.741731
 H     2.390492    -0.313538    -1.966195
 C     4.738400    -1.962681    -0.129737
 H     5.043075    -2.085341     0.911037
 C     3.898552    -1.628515    -2.770034
 H     3.580357    -1.520731    -3.808160
 C     5.406350    -2.623360    -1.155635
 H     6.254866    -3.278933    -0.952439
 C     4.973797    -2.452387    -2.465926
 F     5.607915    -3.090705    -3.449824
 C     1.967057     2.351441     0.307931
 C     1.352220     3.253041     1.178055
 H     0.353174     3.030478     1.555896
 C     3.251824     2.597501    -0.175757
 H     3.717710     1.877730    -0.851106
 C     2.021681     4.410707     1.562709
 H     1.565909     5.132011     2.243072
 C     3.925032     3.754603     0.208026
 H     4.930349     3.975114    -0.155104
 C     3.301224     4.646051     1.073088
 F     3.945586     5.752806     1.441992
 C    -2.930223     0.588378    -3.023316
 C    -0.536348     0.953098    -2.889649
 C    -1.781028     1.778261    -4.784676
 C    -0.571132     1.625672    -4.107997
 C    -2.956786     1.258174    -4.243876
 H    -3.845241     0.179736    -2.591650
 H    -3.903228     1.376645    -4.776502
 H    -1.807853     2.304030    -5.742188
 H     0.350353     2.031200    -4.531928
 H     0.401300     0.840738    -2.340033
 C    -3.359795    -1.984926     0.288081
 C    -3.491899    -3.310349    -0.124974
 H    -3.400856    -3.544054    -1.186789
 C    -3.446797    -1.655551     1.642062
 H    -3.324818    -0.616101     1.951207
 C    -3.723849    -4.310206     0.814618
 H    -3.828963    -5.355529     0.519252
 C    -3.674183    -2.654240     2.586462
 H    -3.743561    -2.425905     3.651325
 C    -3.809182    -3.969562     2.160125
 F    -4.023081    -4.926854     3.061021
 C    -2.539663     2.043386    -0.005148
 C    -3.918659     2.026963     0.202639
 H    -4.393861     1.129381     0.600156
 C    -1.917817     3.173973    -0.535971
 H    -0.840438     3.155880    -0.704474
 C    -4.679764     3.149501    -0.115276
 H    -5.760425     3.165761     0.036504
 C    -2.674573     4.296928    -0.854276
 H    -2.213619     5.193106    -1.273002
 C    -4.047976     4.270062    -0.640399
 F    -4.775794     5.343353    -0.947014
