  90
scf done:    -2852.638138
 C     1.362612    -3.662535     1.491915
 H     1.822530    -4.418934     0.832664
 H     2.192160    -3.052763     1.889193
 C     0.661762    -4.344900     2.658328
 H    -0.092693    -5.074054     2.323275
 H     1.376708    -4.890228     3.302395
 H     0.138400    -3.623676     3.307812
Rh     0.053553    -2.402270     0.386892
 O     2.660511    -0.421095     1.335426
 C     3.362604    -2.159197    -0.530829
 C     1.920228     0.219979    -1.277283
 O    -1.241578     0.317514    -1.274519
 C    -3.082971    -1.821988    -1.089289
 C    -2.316620    -0.184286     1.253777
 P    -1.608775    -0.968351    -0.295074
 P     1.934869    -1.123792     0.020848
 C    -0.895243    -3.951105     0.029931
 O    -1.376529    -4.930952    -0.338448
 C     1.868366     0.310354     2.276087
 H     1.083997     0.855697     1.721291
 C     2.787067     1.323341     2.921621
 H     3.232561     1.974609     2.157419
 H     3.598035     0.810078     3.461223
 H     2.233639     1.946877     3.639404
 C     1.202403    -0.623801     3.266121
 H     0.552059    -1.346211     2.743409
 H     1.954231    -1.194699     3.831835
 H     0.586712    -0.053180     3.978308
 H     3.491728    -2.922516     0.249039
 H     3.004141    -2.682401    -1.430747
 C     4.635050    -1.415821    -0.794710
 C     5.069083    -1.170726    -2.103475
 H     4.489565    -1.560361    -2.945007
 C     5.412153    -0.922778     0.263770
 H     5.081192    -1.092207     1.289058
 C     6.231636    -0.445490    -2.360578
 H     6.574899    -0.253445    -3.378564
 C     6.575306    -0.198752     0.025367
 H     7.183219     0.191257     0.843727
 C     6.970062     0.035273    -1.287484
 F     8.083434     0.729540    -1.519776
 H     2.608438    -0.098753    -2.073711
 H     0.897821     0.226086    -1.676731
 C     2.297240     1.584370    -0.782803
 C     1.311692     2.452453    -0.297124
 H     0.271125     2.124307    -0.298659
 C     3.627026     2.022195    -0.777633
 H     4.414090     1.363192    -1.148055
 C     1.633446     3.720220     0.180786
 H     0.866309     4.402591     0.551551
 C     3.966323     3.288003    -0.306569
 H     5.000959     3.635717    -0.304026
 C     2.962819     4.123267     0.169553
 F     3.281404     5.336740     0.621739
 C    -2.115167     1.047488    -2.146061
 H    -3.150178     0.921810    -1.794627
 C    -1.971850     0.505919    -3.557029
 H    -2.210689    -0.565331    -3.614843
 H    -0.936856     0.637780    -3.907417
 H    -2.638532     1.043803    -4.248075
 C    -1.763561     2.517852    -2.072702
 H    -1.865584     2.895920    -1.047713
 H    -0.731606     2.691633    -2.412290
 H    -2.440612     3.095795    -2.719223
 H    -2.804593    -1.957157    -2.145298
 H    -3.028280    -2.825003    -0.643984
 C    -4.483979    -1.307214    -0.946453
 C    -5.223957    -1.602923     0.208228
 H    -4.784160    -2.238648     0.981349
 C    -5.114517    -0.556242    -1.947929
 H    -4.590151    -0.355063    -2.884271
 C    -6.517080    -1.120400     0.391545
 H    -7.090390    -1.347197     1.292006
 C    -6.406917    -0.065327    -1.784745
 H    -6.898035     0.520688    -2.563595
 C    -7.089934    -0.341783    -0.606262
 F    -8.323281     0.128625    -0.441491
 H    -3.188562    -0.787121     1.545873
 H    -1.545729    -0.358815     2.018060
 C    -2.663601     1.273634     1.206823
 C    -1.747498     2.227310     1.668233
 H    -0.784393     1.898715     2.065516
 C    -3.899730     1.727777     0.726861
 H    -4.642697     1.008804     0.378166
 C    -2.038934     3.589336     1.645280
 H    -1.329931     4.332731     2.014127
 C    -4.207258     3.084846     0.693314
 H    -5.170451     3.440645     0.323312
 C    -3.269359     4.002935     1.151000
 F    -3.559684     5.301970     1.124296
