 102
scf done:    -2538.790866
 C    -1.099431    -0.525496    -3.413256
 H    -0.921577    -1.553905    -3.777099
 H    -2.147230    -0.523248    -3.072341
 C    -0.975734     0.458565    -4.570167
 H     0.009479     0.403994    -5.059447
 H    -1.734399     0.275924    -5.354555
 H    -1.104532     1.501846    -4.239013
Rh     0.233568    -0.166394    -1.779971
 C    -2.938908     1.011331    -0.515232
 C    -2.642980    -1.921945    -0.769317
 C    -1.410438    -0.524613     1.428108
 C     2.405053    -1.252904     0.785939
 C     3.330203     1.029133    -0.913529
 C     1.466777     1.414594     1.287291
 P     1.813284     0.261941    -0.123639
 P    -1.690576    -0.371790    -0.409919
 C     1.538145    -0.435537    -3.045465
 O     2.334578    -0.708081    -3.833334
 H    -2.605056     1.679357     0.301606
 C    -4.394338     0.617035    -0.250012
 H    -4.492115     0.028938     0.673205
 H    -4.745119    -0.024817    -1.077460
 C    -5.282117     1.855255    -0.169765
 H    -6.327544     1.554679     0.007815
 H    -4.977422     2.452260     0.708768
 C    -5.174897     2.707750    -1.428775
 H    -5.785357     3.620211    -1.329668
 H    -5.594399     2.144565    -2.282137
 C    -3.723869     3.065239    -1.730627
 H    -3.339483     3.727363    -0.935241
 H    -3.654322     3.632929    -2.673016
 C    -2.843750     1.822851    -1.808226
 H    -3.168334     1.203071    -2.659839
 H    -1.794283     2.087267    -2.006967
 H    -2.928322    -1.861776    -1.831965
 H    -3.572914    -1.913953    -0.183429
 C    -1.881501    -3.194526    -0.507869
 C    -2.467213    -4.220914     0.244316
 H    -3.479682    -4.087006     0.635827
 C    -0.597713    -3.404545    -1.029341
 H    -0.125379    -2.603185    -1.614805
 C    -1.789825    -5.416077     0.483642
 H    -2.268521    -6.201504     1.073722
 C     0.077658    -4.600228    -0.796275
 H     1.073799    -4.745725    -1.221341
 C    -0.511041    -5.609577    -0.034525
 H     0.021842    -6.545947     0.147740
 H    -0.733900     0.303123     1.666394
 H    -0.848088    -1.463719     1.552661
 C    -2.603850    -0.473977     2.328948
 C    -3.322473    -1.631464     2.652615
 H    -2.968373    -2.597176     2.285579
 C    -3.044642     0.750438     2.850762
 H    -2.480574     1.660469     2.630072
 C    -4.473293    -1.562452     3.435185
 H    -5.022047    -2.477133     3.673077
 C    -4.195162     0.821563     3.632119
 H    -4.526491     1.787477     4.021266
 C    -4.921481    -0.333821     3.918725
 H    -5.826046    -0.278798     4.528774
 H     1.446627    -1.711282     1.098366
 C     3.260663    -1.044819     2.038127
 H     2.745971    -0.392859     2.759645
 H     4.195367    -0.528280     1.769434
 C     3.591168    -2.376660     2.707478
 H     4.232554    -2.202360     3.586637
 H     2.658900    -2.833101     3.087328
 C     4.259816    -3.344096     1.738832
 H     4.466629    -4.305561     2.236056
 H     5.239906    -2.933626     1.434055
 C     3.395701    -3.557939     0.502457
 H     2.454657    -4.054506     0.797682
 H     3.895748    -4.234299    -0.209951
 C     3.064033    -2.237080    -0.183384
 H     3.996122    -1.797105    -0.579567
 H     2.403226    -2.401378    -1.049136
 H     2.915472     1.819259    -1.558569
 H     3.712729     0.259229    -1.599481
 C     4.429042     1.577897    -0.058965
 C     5.597376     0.842441     0.180651
 H     5.713509    -0.142393    -0.279848
 C     4.322060     2.853528     0.513208
 H     3.435721     3.461457     0.308250
 C     6.611846     1.348835     0.989337
 H     7.514493     0.757248     1.160614
 C     5.334010     3.362054     1.325342
 H     5.228244     4.358421     1.761329
 C     6.480150     2.608485     1.572725
 H     7.274825     3.006981     2.207632
 H     2.433757     1.798706     1.654746
 H     1.074834     0.800026     2.111297
 C     0.529938     2.559716     1.018856
 C     0.331383     3.089321    -0.261718
 H     0.813253     2.620915    -1.124905
 C    -0.155067     3.146707     2.092378
 H    -0.014245     2.743647     3.099668
 C    -0.511870     4.182362    -0.459025
 H    -0.653657     4.577096    -1.467813
 C    -1.006645     4.231234     1.896534
 H    -1.531897     4.670158     2.748440
 C    -1.184387     4.757032     0.616812
 H    -1.848558     5.609970     0.459140
