  78
scf done:    -2223.086930
 C     1.678502    -1.545604    -2.387484
 H     1.567151    -1.578833    -3.478452
 H     2.681576    -1.163839    -2.150750
 C     1.371774    -2.864195    -1.703152
 H     1.021557    -3.644240    -2.394948
 H     2.218527    -3.252164    -1.115965
 H     0.539447    -2.757913    -0.940870
Rh     0.058332    -0.688940    -1.369142
 C     2.871656    -0.680424     0.726182
 O     2.632397     1.347383    -0.905005
 O     1.023431     1.292703     1.098190
 C    -2.628904     1.168143     0.038836
 O    -3.009677    -1.393977    -0.180207
 O    -1.287397    -0.689510     1.575191
 P    -1.706521    -0.400799     0.010056
 P     1.608661     0.334656    -0.107894
 C    -0.848056    -0.262764    -2.948705
 O    -1.329367     0.189485    -3.893128
 C     2.389442    -1.695998     1.563607
 C     4.247583    -0.528436     0.539348
 C     4.654967    -2.376253     2.044459
 C     5.136267    -1.377357     1.199709
 C     3.279287    -2.535456     2.226505
 H     1.308084    -1.811287     1.694096
 H     2.901230    -3.321524     2.884698
 H     5.354127    -3.039580     2.559639
 H     6.212607    -1.258707     1.052117
 H     4.608828     0.259153    -0.124522
 C     2.154113     2.168013    -1.980151
 H     1.070865     1.979766    -2.098882
 C     2.858734     1.757127    -3.254936
 H     2.622281     0.714352    -3.502316
 H     3.949559     1.856010    -3.139852
 H     2.537677     2.393203    -4.093378
 C     2.387974     3.619511    -1.614584
 H     1.851138     3.885480    -0.693391
 H     3.460842     3.809495    -1.454905
 H     2.035631     4.280662    -2.420332
 C     1.837903     2.144566     1.912408
 H     2.765043     2.374833     1.358385
 C     2.185909     1.459030     3.220848
 H     2.781510     0.552227     3.056269
 H     1.267682     1.177069     3.757689
 H     2.766191     2.140028     3.861725
 C     1.053868     3.423703     2.131028
 H     0.822514     3.914977     1.175212
 H     0.101704     3.203477     2.636906
 H     1.626432     4.128541     2.752103
 C    -4.023461     1.228728     0.133001
 C    -1.885347     2.352228    -0.032842
 C    -3.919173     3.643500     0.125082
 C    -2.529220     3.585336     0.018210
 C    -4.664045     2.465746     0.177268
 H    -4.597106     0.300700     0.159410
 H    -5.753584     2.510579     0.248434
 H    -4.424996     4.611618     0.159385
 H    -1.943556     4.506643    -0.030653
 H    -0.797746     2.292118    -0.106179
 C    -2.813955    -2.808334    -0.287009
 H    -1.831927    -3.062516     0.155634
 C    -2.824030    -3.221688    -1.744663
 H    -2.010513    -2.722183    -2.289857
 H    -3.780705    -2.942482    -2.211929
 H    -2.691763    -4.310255    -1.838013
 C    -3.906371    -3.473050     0.525137
 H    -3.870047    -3.148247     1.574828
 H    -4.894426    -3.209122     0.117617
 H    -3.801053    -4.567739     0.495012
 C    -2.197500    -0.573641     2.672768
 H    -3.230810    -0.632758     2.285798
 C    -1.992851     0.757964     3.368053
 H    -2.182701     1.594176     2.681769
 H    -0.957324     0.837037     3.730146
 H    -2.674049     0.852305     4.227171
 C    -1.942506    -1.756180     3.585359
 H    -2.086000    -2.703748     3.046396
 H    -0.907148    -1.728334     3.958926
 H    -2.624291    -1.738490     4.448755
