 102
scf done:    -3061.084991
 C     1.580810    -0.960376    -3.320556
 H     1.261877    -0.761382    -4.355918
 H     2.575721    -0.509036    -3.209282
 C     1.635899    -2.459693    -3.081518
 H     2.243929    -2.980368    -3.845932
 H     2.086352    -2.705185    -2.105994
 H     0.634152    -2.920305    -3.110446
Rh     0.180917    -0.219607    -1.945265
 C     1.339179    -1.318011     1.207659
 C     3.498345    -0.812803    -0.603471
 C     2.060927     1.418595     0.427335
 C    -1.702415     1.551395     0.507750
 C    -3.311605     0.171682    -1.451452
 C    -2.130188    -1.352901     0.527443
 P    -1.698624     0.071190    -0.561012
 P     1.775441    -0.271388    -0.235239
 C    -0.343772     0.953876    -3.249882
 O    -0.506692     1.853678    -3.960154
 C     0.926245    -2.630510     0.921177
 H     0.922036    -2.975286    -0.117060
 C     1.280339    -0.892236     2.534571
 H     1.595020     0.117686     2.796440
 C     0.494503    -3.485704     1.919759
 H     0.167714    -4.501952     1.696676
 C     0.801574    -1.726994     3.545889
 H     0.742230    -1.344468     4.565229
 C     0.402787    -3.031680     3.241446
 O    -0.093983    -3.907753     4.138435
 C    -0.306178    -3.474817     5.450742
 H    -1.005055    -2.620107     5.490491
 H    -0.746010    -4.319917     5.995838
 H     0.635898    -3.183746     5.948731
 C     4.048818    -1.992758    -0.105810
 H     3.462992    -2.601837     0.585288
 C     4.280195    -0.018695    -1.468428
 O     3.714575     1.126592    -1.888858
 C     4.355533     1.921052    -2.842528
 H     5.312437     2.323189    -2.465154
 H     3.675907     2.755892    -3.054240
 H     4.541137     1.362778    -3.776877
 C     5.333782    -2.402837    -0.463070
 H     5.740504    -3.333549    -0.061846
 C     5.567510    -0.425570    -1.831809
 H     6.167802     0.185017    -2.506847
 C     6.087175    -1.617921    -1.329314
 H     7.093478    -1.928161    -1.621519
 C     1.361890     2.480720    -0.145182
 H     0.646737     2.242975    -0.936809
 C     3.041693     1.702456     1.399505
 O     3.744346     0.655491     1.874829
 C     4.822390     0.869429     2.736932
 H     5.577339     1.537574     2.287205
 H     5.276714    -0.113783     2.913303
 H     4.501118     1.295081     3.704593
 C     1.574282     3.796034     0.259911
 H     1.003437     4.605595    -0.198408
 C     3.250123     3.020661     1.821420
 H     3.995060     3.244506     2.585509
 C     2.510476     4.058088     1.254155
 H     2.682023     5.082324     1.594954
 C    -1.030307     1.576706     1.738151
 H    -0.578328     0.665163     2.129024
 C    -2.210219     2.754050     0.012764
 H    -2.722046     2.769852    -0.953471
 C    -0.898585     2.752194     2.460264
 H    -0.362987     2.775126     3.411008
 C    -2.070819     3.947191     0.720690
 H    -2.476098     4.865718     0.295325
 C    -1.410530     3.952252     1.954475
 O    -1.210265     5.054636     2.707771
 C    -1.649190     6.288975     2.219844
 H    -2.745095     6.314255     2.081771
 H    -1.370771     7.042404     2.967955
 H    -1.168402     6.546348     1.258944
 C    -3.361787    -0.128690    -2.811981
 H    -2.419736    -0.352044    -3.318625
 C    -4.525001     0.428350    -0.772512
 O    -4.441305     0.671224     0.546415
 C    -5.598731     0.927166     1.286063
 H    -6.120069     1.833177     0.930702
 H    -5.274831     1.088600     2.322086
 H    -6.299948     0.074878     1.258155
 C    -4.567577    -0.151526    -3.512714
 H    -4.576653    -0.384597    -4.579275
 C    -5.735659     0.418157    -1.473447
 H    -6.673511     0.627215    -0.958475
 C    -5.749833     0.129537    -2.837958
 H    -6.704183     0.123002    -3.370751
 C    -2.519317    -1.265869     1.862683
 H    -2.536923    -0.290415     2.348584
 C    -2.163422    -2.616008    -0.099692
 O    -1.777900    -2.639088    -1.391517
 C    -1.935540    -3.807750    -2.145669
 H    -1.286390    -4.621975    -1.779492
 H    -1.641525    -3.555487    -3.171892
 H    -2.984539    -4.150339    -2.142374
 C    -2.915574    -2.397469     2.576629
 H    -3.209176    -2.304788     3.624567
 C    -2.583751    -3.748067     0.601903
 H    -2.613147    -4.722414     0.113764
 C    -2.949642    -3.633679     1.942583
 H    -3.258936    -4.526180     2.491353
