  90
scf done:    -2531.538740
 C    -1.198818     0.405857    -3.350509
 H    -0.670536     0.186215    -4.291731
 H    -2.149464    -0.145909    -3.397528
 C    -1.457375     1.900160    -3.252091
 H    -1.849152     2.315652    -4.199589
 H    -2.206096     2.131230    -2.477462
 H    -0.542608     2.473039    -3.016097
Rh     0.008795    -0.135715    -1.715729
 C    -1.588786     1.748453     0.926198
 C    -3.463053     0.371334    -0.789588
 C    -1.921392    -1.151873     0.935398
 C     1.695415    -1.597859     1.125916
 C     3.409465    -0.454336    -0.857453
 C     1.994686     1.289237     0.803367
 P     1.727736    -0.265050    -0.130482
 P    -1.725386     0.289723    -0.182967
 C     0.798582    -1.354566    -2.839442
 O     1.176114    -2.246852    -3.465111
 C    -1.125637     1.649837     2.243220
 C    -1.818614     3.026767     0.394207
 C    -1.190528     4.052680     2.489256
 C    -1.637504     4.165837     1.173238
 C    -0.922391     2.791814     3.015796
 H    -0.923258     0.668067     2.672793
 H    -0.551469     2.691035     4.038408
 H    -1.042061     4.947181     3.099028
 H    -1.836364     5.150534     0.743127
 H    -2.136275     3.134653    -0.645153
 C    -3.867139    -0.660314    -1.648967
 H    -3.144967    -1.427349    -1.941358
 C    -4.411412     1.317831    -0.395885
 H    -4.140838     2.114078     0.299736
 C    -5.174059    -0.726408    -2.114013
 H    -5.464443    -1.542948    -2.781144
 C    -5.720173     1.248903    -0.872839
 H    -6.445660     2.001356    -0.550740
 C    -6.124950     0.234311    -1.743733
 C    -7.525174     0.175830    -2.279394
 H    -8.206843     0.814132    -1.699638
 H    -7.560172     0.518201    -3.327042
 H    -7.919280    -0.851572    -2.262516
 C    -2.721896    -1.110310     2.082284
 H    -3.219000    -0.181040     2.371766
 C    -1.355407    -2.372024     0.553382
 H    -0.748223    -2.403752    -0.356347
 C    -2.899410    -2.252825     2.856951
 H    -3.516315    -2.200455     3.758554
 C    -1.559766    -3.515446     1.316966
 H    -1.104852    -4.457673     1.001310
 C    -2.316291    -3.472702     2.492738
 C    -2.472086    -4.696539     3.345251
 H    -2.686537    -5.587091     2.735448
 H    -1.540856    -4.902399     3.899719
 H    -3.279939    -4.580876     4.081510
 C     2.042119    -2.896256     0.724362
 C     1.200216    -1.402988     2.419912
 C     1.446011    -3.757159     2.902172
 C     1.076927    -2.474884     3.301686
 C     1.925649    -3.964865     1.608536
 H     2.409544    -3.070054    -0.290835
 H     2.208762    -4.968748     1.282680
 H     1.354077    -4.596977     3.595243
 H     0.684429    -2.303865     4.306777
 H     0.908559    -0.403058     2.743772
 C     3.640939     0.036242    -2.145571
 H     2.803690     0.442653    -2.720083
 C     4.492473    -0.964279    -0.131419
 H     4.342459    -1.345659     0.881406
 C     4.918932     0.008027    -2.697016
 H     5.075589     0.397793    -3.706632
 C     5.765153    -0.998156    -0.691582
 H     6.596360    -1.406331    -0.109415
 C     6.002774    -0.515972    -1.984997
 C     7.370950    -0.587666    -2.596481
 H     8.158972    -0.484034    -1.836277
 H     7.525777    -1.558178    -3.097290
 H     7.516342     0.196836    -3.352972
 C     2.750514     1.377754     1.976447
 H     3.177944     0.477961     2.424648
 C     1.502196     2.467129     0.231853
 H     0.919616     2.407931    -0.692926
 C     2.967630     2.612244     2.582259
 H     3.550344     2.661916     3.506458
 C     1.741844     3.698615     0.828829
 H     1.344177     4.605350     0.366186
 C     2.463799     3.792334     2.023903
 C     2.659757     5.118651     2.695456
 H     2.926146     5.902090     1.970130
 H     1.729497     5.441852     3.192648
 H     3.447984     5.075553     3.460222
