 110
scf done:    -3289.949834
 C    -1.431601     1.951744    -2.350065
 H    -1.541887     1.401351    -3.300347
 H    -2.443473     1.938840    -1.915721
 C    -1.033119     3.395584    -2.635199
 H    -0.097217     3.459740    -3.211904
 H    -1.808206     3.938001    -3.209820
 H    -0.860086     3.976424    -1.712081
Rh    -0.033170     0.899031    -1.109133
 C    -2.946431     1.499977     0.919482
 C    -3.100688    -0.469575    -1.311045
 C    -2.092010    -1.103785     1.385220
 C     1.485117    -1.514683     1.197258
 C     3.089112    -0.549616    -1.104268
 C     2.753312     1.065322     1.180140
 P     1.749629    -0.053973     0.095756
 P    -2.010394     0.159079     0.042286
 C     0.971717     1.106591    -2.608187
 O     1.489923     1.160160    -3.641738
 C    -3.853954     1.225806     1.949521
 C    -2.704363     2.831391     0.578985
 C    -4.269029     3.588453     2.257313
 C    -3.365158     3.869701     1.236141
 C    -4.507720     2.259599     2.613015
 H    -4.058459     0.191031     2.230109
 H    -5.212785     2.025560     3.414999
 H    -4.783695     4.399570     2.778682
 H    -3.164722     4.905265     0.948376
 H    -1.992935     3.050618    -0.216548
 C    -4.390207     0.000305    -1.614985
 O    -4.963545     0.831628    -0.727038
 C    -6.128203     1.527841    -1.055394
 H    -6.321686     2.209733    -0.216762
 H    -6.004313     2.118654    -1.979681
 H    -6.995285     0.853894    -1.175970
 C    -2.510072    -1.384585    -2.201776
 O    -1.317284    -1.888482    -1.832552
 C    -0.414329    -2.322798    -2.819023
 H     0.552244    -2.456187    -2.316261
 H    -0.301647    -1.567037    -3.612059
 H    -0.728002    -3.284648    -3.261360
 C    -3.141419    -1.763349    -3.389710
 H    -2.657201    -2.458547    -4.074857
 C    -5.034927    -0.381725    -2.800219
 H    -6.027046     0.001704    -3.035518
 C    -4.401205    -1.251528    -3.678659
 H    -4.902947    -1.541321    -4.605086
 C    -2.843367    -2.294372     1.380740
 O    -3.515486    -2.595433     0.258020
 C    -4.269430    -3.766005     0.170828
 H    -4.697307    -3.777112    -0.840210
 H    -3.647383    -4.668603     0.307098
 H    -5.090642    -3.785914     0.909166
 C    -1.382766    -0.776973     2.559611
 O    -0.698181     0.377023     2.509512
 C    -0.084346     0.869223     3.667562
 H     0.341418     1.840776     3.396588
 H     0.728100     0.204650     4.005705
 H    -0.816478     1.002102     4.482273
 C    -1.424897    -1.590951     3.694673
 H    -0.861644    -1.331217     4.588934
 C    -2.888055    -3.116587     2.516264
 H    -3.473860    -4.034722     2.510378
 C    -2.180613    -2.755311     3.655772
 H    -2.215046    -3.402422     4.535486
 C     0.558443    -2.479773     0.782330
 C     2.122646    -1.691881     2.428375
 C     1.021027    -3.822324     2.735661
 C     1.891163    -2.836639     3.192635
 C     0.347097    -3.633705     1.529641
 H    -0.004267    -2.320105    -0.137241
 H    -0.375572    -4.375202     1.181346
 H     0.845171    -4.721971     3.330849
 H     2.403800    -2.957014     4.150655
 H     2.815527    -0.939237     2.800992
 C     3.825244     0.486926    -1.716100
 O     3.477756     1.739727    -1.370069
 C     3.997533     2.834086    -2.066962
 H     3.491940     3.720735    -1.663537
 H     5.085080     2.942307    -1.909382
 H     3.786018     2.758128    -3.146803
 C     3.395032    -1.865781    -1.491159
 O     2.622222    -2.844159    -0.980562
 C     2.992991    -4.183827    -1.106660
 H     2.284632    -4.754077    -0.490583
 H     4.016133    -4.360323    -0.731675
 H     2.929684    -4.537184    -2.151422
 C     4.437452    -2.143239    -2.385637
 H     4.663781    -3.171425    -2.665587
 C     4.859520     0.221138    -2.620729
 H     5.415347     1.037638    -3.079488
 C     5.164496    -1.096045    -2.937582
 H     5.971772    -1.310381    -3.641857
 C     2.279798     2.348969     1.511005
 O     1.017089     2.646933     1.160094
 C     0.569958     3.968487     1.279547
 H    -0.443210     3.988604     0.868425
 H     0.525850     4.294661     2.333799
 H     1.211133     4.664345     0.712194
 C     4.082559     0.748107     1.530634
 O     4.510288    -0.485247     1.204567
 C     5.876799    -0.780182     1.194220
 H     5.973558    -1.770310     0.730473
 H     6.301408    -0.818370     2.212960
 H     6.442826    -0.049019     0.592331
 C     4.910713     1.670422     2.181565
 H     5.934564     1.408272     2.445774
 C     3.101995     3.275194     2.170510
 H     2.729078     4.265491     2.426101
 C     4.406682     2.925965     2.494711
 H     5.044818     3.650529     3.006571
