  88
scf done:    -2305.505910
 C     0.625076    -2.831230     2.293071
 H     0.434039    -3.916975     2.310756
 H     1.708228    -2.747261     2.099335
 C     0.319946    -2.236253     3.662419
 H    -0.742740    -2.348347     3.931366
 H     0.909436    -2.713000     4.468966
 H     0.541166    -1.157237     3.702916
Rh    -0.573670    -1.859249     0.819317
 C     2.365032    -0.031363     1.449599
 C     2.582004    -2.244257    -0.460856
 C     1.530354     0.327689    -1.307616
 C    -2.242231    -1.193227    -2.267576
 C    -3.823721    -0.913863     0.151412
 C    -1.993781     1.127255    -0.695242
 P    -2.088534    -0.710412    -0.504324
 P     1.438985    -0.889013     0.122712
 C    -1.795717    -3.176909     1.227719
 O    -2.488598    -4.076349     1.422845
 H     1.762540     0.827177     1.778311
 H     2.485945    -0.721448     2.295340
 H     3.341346     0.339598     1.110678
 H     2.695105    -2.917821     0.400921
 H     1.997991    -2.796591    -1.212292
 C     3.906028    -1.816045    -1.009551
 C     4.121807    -1.754805    -2.392592
 H     3.329969    -2.072098    -3.076729
 C     4.952472    -1.441392    -0.157718
 H     4.809322    -1.517055     0.923665
 C     5.340659    -1.309921    -2.899249
 H     5.499606    -1.273613    -3.979665
 C     6.176356    -0.975842    -0.646998
 C     7.252122    -0.520066     0.294993
 H     7.111301     0.541851     0.558503
 H     7.237117    -1.093184     1.233299
 H     8.251430    -0.617645    -0.152791
 C     6.358073    -0.914164    -2.034284
 H     7.311843    -0.564061    -2.438452
 H     2.004577    -0.202317    -2.146053
 H     0.494636     0.531096    -1.602535
 C     2.259345     1.606939    -1.021183
 C     1.610229     2.674668    -0.391315
 H     0.552624     2.599178    -0.128494
 C     3.620404     1.733038    -1.324287
 H     4.136625     0.902962    -1.812409
 C     2.315874     3.831967    -0.068931
 H     1.797579     4.655369     0.428757
 C     4.341736     2.887214    -1.006592
 C     5.798558     2.999729    -1.354162
 H     6.210388     2.027496    -1.659467
 H     5.954995     3.705856    -2.186275
 H     6.387275     3.372409    -0.501582
 C     3.670995     3.938519    -0.368942
 H     4.218055     4.848573    -0.106459
 H    -2.458343    -2.269823    -2.320829
 H    -3.028887    -0.630099    -2.792133
 H    -1.274582    -1.020827    -2.761400
 H    -4.021504    -1.996545     0.122643
 H    -3.754243    -0.635048     1.214191
 C    -4.896492    -0.139562    -0.545911
 C    -5.239171     1.150944    -0.121686
 H    -4.741196     1.582974     0.750482
 C    -5.553899    -0.671511    -1.661807
 H    -5.305140    -1.685698    -1.989572
 C    -6.201276     1.884105    -0.811260
 H    -6.458917     2.891301    -0.474241
 C    -6.525728     0.049140    -2.363448
 C    -7.240511    -0.563515    -3.533222
 H    -6.616520    -1.312783    -4.041581
 H    -8.162671    -1.073044    -3.207022
 H    -7.532924     0.197760    -4.271048
 C    -6.836568     1.341802    -1.926062
 H    -7.589614     1.925845    -2.462330
 H    -1.148071     1.331296    -1.373277
 H    -2.891464     1.454753    -1.244331
 C    -1.834166     1.944801     0.559773
 C    -2.164372     3.307457     0.519921
 H    -2.575964     3.734465    -0.398718
 C    -1.324485     1.416498     1.748879
 H    -1.074925     0.344286     1.793888
 C    -1.966957     4.112692     1.636043
 H    -2.226355     5.173515     1.594264
 C    -1.120469     2.213984     2.883393
 C    -0.550149     1.614907     4.135707
 H     0.521236     1.387106     4.010843
 H    -0.647640     2.297663     4.991172
 H    -1.047487     0.667079     4.388489
 C    -1.444642     3.570933     2.810485
 H    -1.294428     4.209159     3.685502
