 102
scf done:    -3061.094975
 C    -1.072748     1.376202    -3.347127
 H    -1.252550     0.887239    -4.318086
 H    -2.062861     1.679286    -2.975330
 C    -0.188608     2.600676    -3.532781
 H     0.808209     2.340594    -3.924992
 H    -0.634030     3.327992    -4.238822
 H    -0.031677     3.147429    -2.586427
Rh    -0.022557     0.185761    -1.962805
 C    -1.556852     1.908522     0.722663
 C    -3.439119     0.669833    -1.053236
 C    -2.005039    -1.002730     0.631173
 C     1.415630    -1.776774     0.799769
 C     3.284485    -0.858904    -1.163070
 C     2.109413     1.016694     0.566784
 P     1.643303    -0.448005    -0.438795
 P    -1.731658     0.481204    -0.402852
 C     0.600389    -0.771248    -3.408913
 O     0.826048    -1.499876    -4.274878
 C    -1.782862     3.188805     0.184675
 H    -2.188731     3.287754    -0.826022
 C    -1.015742     1.824409     2.006174
 H    -0.809073     0.847065     2.444488
 C    -1.490140     4.331015     0.909467
 H    -1.661780     5.326286     0.495204
 C    -0.708473     2.967387     2.744964
 H    -0.268274     2.856469     3.735845
 C    -0.939974     4.231906     2.196469
 O    -0.660118     5.395610     2.812183
 C     0.021644     5.363150     4.035784
 H     1.008849     4.883122     3.928497
 H     0.165210     6.407382     4.341426
 H    -0.558964     4.842621     4.817890
 C    -4.445879     1.372202    -0.376596
 H    -4.207365     1.927169     0.534043
 C    -3.781500    -0.037143    -2.207524
 H    -2.999789    -0.583650    -2.743970
 C    -5.749559     1.376445    -0.849765
 H    -6.539886     1.925731    -0.334549
 C    -5.088417    -0.049136    -2.689241
 H    -5.315933    -0.609288    -3.596346
 C    -6.083208     0.664767    -2.010511
 O    -7.372975     0.725714    -2.396570
 C    -7.765298     0.035095    -3.549036
 H    -7.597956    -1.052442    -3.454073
 H    -8.839913     0.218423    -3.675722
 H    -7.233667     0.397314    -4.446740
 C    -1.657004    -2.233950     0.055743
 H    -1.148620    -2.232438    -0.913901
 C    -2.657252    -1.005160     1.864823
 H    -2.984919    -0.065029     2.315090
 C    -1.932360    -3.424807     0.702549
 H    -1.658480    -4.384173     0.261447
 C    -2.900827    -2.197746     2.547753
 H    -3.385261    -2.164503     3.523960
 C    -2.528573    -3.416341     1.969186
 O    -2.693790    -4.622121     2.552601
 C    -3.101840    -4.670828     3.890834
 H    -4.116705    -4.258863     4.029747
 H    -3.112061    -5.730138     4.178351
 H    -2.396795    -4.129792     4.545348
 C     0.944221    -1.505219     2.092627
 H     0.823370    -0.470788     2.416788
 C     1.550229    -3.116258     0.422092
 H     1.900670    -3.363298    -0.583977
 C     0.620751    -2.526604     2.969651
 H     0.239195    -2.313151     3.969559
 C     1.233586    -4.155538     1.296183
 H     1.343392    -5.186450     0.958896
 C     0.749617    -3.863777     2.576317
 O     0.372884    -4.787807     3.483211
 C     0.302430    -6.129355     3.085500
 H     1.290967    -6.527371     2.796844
 H    -0.062460    -6.694596     3.952755
 H    -0.405343    -6.262227     2.249736
 C     4.254451    -1.613493    -0.483800
 H     4.019156    -2.060409     0.484834
 C     3.632149    -0.296826    -2.392290
 H     2.894535     0.305330    -2.929446
 C     5.513219    -1.813657    -1.028044
 H     6.268214    -2.408284    -0.510082
 C     4.896656    -0.482044    -2.948790
 H     5.123651    -0.028241    -3.913589
 C     5.846852    -1.250582    -2.268390
 O     7.090716    -1.500469    -2.721219
 C     7.477730    -0.967558    -3.956727
 H     7.446875     0.136381    -3.956111
 H     8.511299    -1.293051    -4.130305
 H     6.843403    -1.338655    -4.780968
 C     1.677234     2.283113     0.148402
 H     1.033228     2.361584    -0.732753
 C     2.948270     0.938023     1.680544
 H     3.325746    -0.032128     2.012776
 C     2.046587     3.429314     0.834922
 H     1.700579     4.415310     0.521210
 C     3.317473     2.078995     2.390313
 H     3.965349     1.978038     3.261380
 C     2.858492     3.333229     1.971239
 O     3.141011     4.492322     2.607138
 C     4.032142     4.468998     3.686797
 H     5.018400     4.068305     3.394321
 H     4.154675     5.508547     4.016848
 H     3.644074     3.870780     4.530813
