 106
scf done:    -2465.452902
 C    -0.892253    -3.652828    -0.988307
 H    -1.422304    -4.348089    -0.315139
 H    -1.651454    -3.283564    -1.695001
 C     0.185287    -4.399415    -1.765565
 H     0.908020    -4.896583    -1.098808
 H    -0.240587    -5.180877    -2.424326
 H     0.769693    -3.723826    -2.413863
Rh     0.027826    -2.039388     0.025971
 C    -0.935300     0.717036    -1.931868
 C    -3.083938    -1.157885    -1.595679
 C    -2.295680     0.480906     0.625443
 C     0.910841     0.976591     1.769037
 C     2.961095    -1.016976     1.662514
 C     2.309157     0.471735    -0.719081
 P     1.512480    -0.385067     0.702907
 P    -1.576707    -0.519701    -0.741593
 C     0.674215    -3.297725     1.201953
 O     0.958767    -4.028697     2.049788
 C    -0.353652     0.228918    -3.116614
 H    -0.397028    -0.842176    -3.337029
 C    -0.823772     2.083068    -1.666731
 H    -1.245633     2.504438    -0.753195
 C     0.317549     1.068323    -3.988837
 H     0.779989     0.689569    -4.902256
 C    -0.135914     2.941104    -2.529691
 H    -0.058179     3.998625    -2.275691
 C     0.449000     2.434697    -3.693757
 O     1.161841     3.166708    -4.570672
 C     1.373018     4.524696    -4.301856
 H     1.915989     4.673122    -3.351497
 H     1.983983     4.917011    -5.124397
 H     0.424436     5.088415    -4.261951
 H    -2.737619    -1.709982    -2.484926
 H    -3.668979    -0.300348    -1.961942
 C    -3.897934    -2.072254    -0.687014
 H    -3.206628    -2.713713    -0.115614
 H    -4.437904    -1.465249     0.061897
 C    -4.905068    -2.960421    -1.419327
 H    -4.333731    -3.561601    -2.151623
 C    -5.567389    -3.924336    -0.442576
 H    -4.818704    -4.538016     0.081728
 H    -6.262967    -4.605089    -0.957589
 H    -6.143771    -3.375173     0.321076
 C    -5.945432    -2.148217    -2.182201
 H    -6.662260    -2.804587    -2.699755
 H    -5.486567    -1.497136    -2.941662
 H    -6.520670    -1.505627    -1.493717
 H    -1.464160     1.076942     1.028891
 H    -2.532156    -0.248343     1.415338
 C    -3.492844     1.367607     0.297816
 H    -3.363596     1.834728    -0.692615
 H    -4.406304     0.752888     0.216486
 C    -3.731642     2.476983     1.326505
 H    -2.807123     3.083642     1.377685
 C    -4.868527     3.386588     0.877512
 H    -4.671277     3.817458    -0.116705
 H    -5.019183     4.219377     1.581943
 H    -5.817386     2.827863     0.814873
 C    -3.989585     1.922561     2.722471
 H    -4.169417     2.737562     3.440938
 H    -3.136372     1.334058     3.091330
 H    -4.879375     1.270307     2.728515
 C     0.808993     2.313268     1.354109
 H     1.211761     2.622703     0.388445
 C     0.363127     0.636103     3.011325
 H     0.392812    -0.404884     3.346296
 C     0.165950     3.261579     2.139133
 H     0.073202     4.299567     1.813337
 C    -0.267531     1.579404     3.818507
 H    -0.686210     1.267649     4.775594
 C    -0.385541     2.903252     3.375797
 O    -1.015734     3.880243     4.055747
 C    -1.549605     3.589219     5.318365
 H    -0.769709     3.255146     6.024902
 H    -1.993366     4.520004     5.693427
 H    -2.336047     2.816946     5.263146
 H     2.544355    -1.482953     2.571109
 H     3.576464    -0.164729     1.989932
 C     3.768721    -2.041121     0.874393
 H     3.073825    -2.688825     0.311733
 H     4.383498    -1.525726     0.114167
 C     4.674799    -2.928441     1.729743
 H     4.022145    -3.448277     2.455872
 C     5.344639    -3.988726     0.864332
 H     4.599020    -4.597169     0.329497
 H     5.964219    -4.668954     1.469143
 H     6.000820    -3.523386     0.109450
 C     5.706539    -2.121614     2.509713
 H     6.350624    -2.778566     3.114750
 H     5.235523    -1.400011     3.194303
 H     6.359979    -1.555289     1.824032
 H     1.507710     1.047438    -1.206278
 H     2.555269    -0.330056    -1.432661
 C     3.516888     1.358567    -0.434244
 H     3.381320     1.894876     0.519942
 H     4.418340     0.735485    -0.298445
 C     3.782729     2.390232    -1.534944
 H     2.866601     3.006912    -1.623460
 C     4.932877     3.310033    -1.145046
 H     4.741693     3.810649    -0.182796
 H     5.100308     4.089533    -1.904878
 H     5.871979     2.741041    -1.042837
 C     4.028676     1.740129    -2.891258
 H     4.199867     2.498707    -3.670468
 H     3.172648     1.130145    -3.214090
 H     4.917874     1.088100    -2.856290
