 102
scf done:    -2935.555040
 C    -1.143516     3.136868    -1.516444
 H    -1.268823     3.370007    -2.586671
 H    -2.166545     3.084408    -1.118263
 C    -0.391930     4.274331    -0.836941
 H    -0.928339     5.237134    -0.934263
 H    -0.251560     4.097729     0.242638
 H     0.609424     4.424011    -1.273231
Rh    -0.061963     1.341370    -1.178522
 C    -1.341811     0.511133     2.038115
 C    -3.432075     1.382207     0.230077
 C    -2.277371    -1.195110    -0.242430
 C     1.216670    -2.029260    -0.444800
 C     3.056976    -0.066048    -1.739587
 C     2.356470     0.107115     1.077334
 P     1.599806    -0.213307    -0.582705
 P    -1.779097     0.541511     0.224304
 C     0.698744     1.733459    -2.806784
 O     1.050068     1.912784    -3.889804
 H    -0.662399    -0.361585     2.111498
 C    -2.457247     0.329846     3.070060
 H    -3.076709    -0.549457     2.851028
 H    -3.124803     1.208271     3.033461
 C    -1.871673     0.222676     4.476286
 H    -2.683799     0.091264     5.209384
 H    -1.251522    -0.690314     4.536727
 C    -1.025883     1.441045     4.829896
 H    -0.574556     1.321916     5.828126
 H    -1.682684     2.327576     4.890703
 C     0.052661     1.694075     3.782483
 H     0.795711     0.875883     3.817061
 H     0.608747     2.618406     4.006069
 C    -0.534120     1.768205     2.378185
 H    -1.197116     2.649280     2.302200
 H     0.259401     1.929100     1.634344
 H    -4.003021     0.997365     1.087261
 H    -3.235607     2.448284     0.438878
 C    -4.262629     1.226797    -1.017682
 C    -3.704547     1.177108    -2.302952
 H    -2.617932     1.240052    -2.421480
 C    -5.655447     1.126557    -0.900467
 H    -6.113870     1.160841     0.092112
 C    -4.508319     1.035531    -3.431234
 H    -4.076353     0.994732    -4.432861
 C    -6.473700     0.989002    -2.018891
 H    -7.558916     0.913576    -1.930036
 C    -5.885441     0.945614    -3.276472
 F    -6.658485     0.808568    -4.352895
 H    -2.866441    -1.067680    -1.162886
 H    -1.356518    -1.705720    -0.539668
 C    -3.025356    -1.994011     0.776374
 C    -2.339675    -2.815725     1.681020
 H    -1.253099    -2.910379     1.607307
 C    -4.420160    -1.914674     0.881252
 H    -4.976453    -1.300227     0.168997
 C    -3.011375    -3.510519     2.682919
 H    -2.482299    -4.149190     3.392403
 C    -5.108358    -2.601603     1.877780
 H    -6.194739    -2.543937     1.966865
 C    -4.392368    -3.385549     2.774693
 F    -5.044098    -4.042256     3.732583
 H     0.331653    -2.012157     0.218434
 C     2.226756    -2.973959     0.211588
 H     2.487544    -2.622509     1.221319
 H     3.163076    -2.991412    -0.365436
 C     1.659470    -4.389612     0.300307
 H     2.408127    -5.062281     0.748727
 H     0.790996    -4.393511     0.985113
 C     1.219771    -4.911672    -1.062264
 H     0.797831    -5.925059    -0.967887
 H     2.105629    -5.002028    -1.716720
 C     0.210200    -3.972437    -1.711549
 H    -0.718709    -3.965055    -1.112198
 H    -0.072429    -4.336250    -2.712305
 C     0.758817    -2.553226    -1.808958
 H     1.618418    -2.547745    -2.500444
 H     0.013793    -1.864897    -2.243397
 H     2.645138    -0.223579    -2.747110
 H     3.318284     1.003133    -1.684755
 C     4.262288    -0.925765    -1.517991
 C     5.181056    -0.642432    -0.498015
 H     5.046009     0.251023     0.116231
 C     4.503423    -2.043724    -2.327465
 H     3.821439    -2.267373    -3.151819
 C     6.274137    -1.470882    -0.259014
 H     6.992244    -1.254864     0.534209
 C     5.592112    -2.882362    -2.104949
 H     5.781358    -3.755117    -2.732467
 C     6.460389    -2.590644    -1.060282
 F     7.501472    -3.390034    -0.833867
 H     1.545173    -0.081464     1.802946
 H     3.119846    -0.661696     1.268600
 C     2.955547     1.468203     1.317866
 C     3.951214     1.608813     2.295027
 H     4.295205     0.726839     2.842910
 C     2.542271     2.615892     0.631615
 H     1.763609     2.530516    -0.141099
 C     4.511084     2.848878     2.588338
 H     5.285365     2.962791     3.349126
 C     3.089899     3.865020     0.911965
 H     2.761854     4.758825     0.378239
 C     4.068999     3.967055     1.890692
 F     4.600089     5.156864     2.166161
