  82
scf done:    -2151.190672
 C    -3.669819     0.236326     1.346746
 H    -4.483659    -0.506353     1.363818
 H    -3.351970     0.352148     2.392841
 C    -4.192669     1.568611     0.823738
 H    -4.600373     1.479970    -0.196065
 H    -4.999596     1.981091     1.460343
 H    -3.402607     2.339533     0.781545
Rh    -2.075405    -0.250186     0.047438
 C     0.599363     1.448699     1.563977
 C    -1.067658     0.144554     3.499836
 C     0.658387    -1.449152     1.833961
 C     0.993898    -1.173506    -1.576068
 C    -1.179606    -0.591093    -3.338698
 C     0.105236     1.576541    -1.912111
 P    -0.516011    -0.142580    -1.671370
 P    -0.491747    -0.011929     1.751287
 C    -3.291260    -1.247793    -0.904717
 O    -3.979052    -2.015567    -1.426002
 C    -0.012300     2.715601     1.528832
 H    -1.086757     2.801804     1.717261
 C     1.963564     1.377452     1.278423
 H     2.476791     0.415154     1.276596
 C     0.707784     3.855426     1.215495
 H     0.232218     4.837160     1.176493
 C     2.701955     2.516935     0.946599
 H     3.762983     2.413070     0.717528
 C     2.074188     3.764981     0.905801
 O     2.687730     4.916860     0.573046
 C     4.044289     4.883162     0.228358
 H     4.226426     4.246743    -0.656036
 H     4.334159     5.913787    -0.011717
 H     4.671549     4.520806     1.061813
 H    -0.201940     0.374930     4.142053
 H    -1.729763     1.025549     3.535871
 C    -1.812424    -1.093919     3.987942
 H    -1.102205    -1.930556     4.096430
 H    -2.532245    -1.410637     3.215247
 C    -2.533070    -0.862669     5.306601
 H    -1.834236    -0.550095     6.099306
 H    -3.295035    -0.073366     5.205433
 H    -3.043661    -1.774844     5.650896
 H     0.008831    -2.337235     1.768396
 H     1.218763    -1.441879     0.888016
 C     1.609738    -1.562582     3.020161
 H     1.036490    -1.711060     3.949305
 H     2.161631    -0.619134     3.162290
 C     2.594423    -2.710397     2.843350
 H     2.064755    -3.670221     2.729714
 H     3.214596    -2.572616     1.943044
 H     3.269346    -2.801386     3.708138
 C     2.286869    -0.658575    -1.399752
 H     2.462141     0.417086    -1.444552
 C     0.827463    -2.560869    -1.490446
 H    -0.174341    -2.990036    -1.584629
 C     3.360766    -1.493983    -1.121571
 H     4.365101    -1.094833    -0.965967
 C     1.896430    -3.413130    -1.226284
 H     1.717348    -4.485968    -1.153532
 C     3.174252    -2.878108    -1.019190
 O     4.263222    -3.605719    -0.702428
 C     4.124117    -4.989653    -0.534749
 H     3.787396    -5.484432    -1.462564
 H     5.115992    -5.375335    -0.267743
 H     3.415571    -5.233024     0.276585
 H    -0.361466    -0.570430    -4.077442
 H    -1.510407    -1.640117    -3.257749
 C    -2.345922     0.287123    -3.775753
 H    -1.978229     1.302698    -4.001107
 H    -3.047000     0.403704    -2.932092
 C    -3.083713    -0.273025    -4.981367
 H    -2.409245    -0.406440    -5.842622
 H    -3.525481    -1.254481    -4.747020
 H    -3.901183     0.393135    -5.296407
 H    -0.787187     2.217814    -1.818369
 H     0.709707     1.807466    -1.021046
 C     0.870136     1.910074    -3.187667
 H     0.201979     1.816166    -4.059167
 H     1.676118     1.176645    -3.354052
 C     1.453998     3.314928    -3.142623
 H     0.662114     4.070669    -3.019383
 H     2.142735     3.431646    -2.290052
 H     2.007752     3.555408    -4.063013
