 102
scf done:    -2387.439600
 C     1.485299    -0.595405    -3.349117
 H     1.199452    -0.309263    -4.369788
 H     2.504913    -0.245669    -3.147417
 C     1.306122    -2.076107    -3.069429
 H     1.136489    -2.678465    -3.976851
 H     2.153242    -2.495323    -2.508386
 H     0.398097    -2.275837    -2.428135
Rh     0.027541    -0.129635    -1.923720
 C     1.518942    -0.330534     1.392990
 O     3.124835    -0.579079    -0.821504
 O     2.109390     1.702161    -0.177980
 C    -2.367385     1.530464     0.038206
 O    -3.185583    -0.634984    -1.231870
 O    -1.676652    -1.046010     0.826195
 P    -1.780613    -0.115034    -0.537861
 P     1.692449     0.117020    -0.384492
 C    -0.788776     1.024092    -3.119398
 O    -1.197284     1.884742    -3.772176
 H     0.476834    -0.043773     1.619536
 C     2.445473     0.386391     2.373897
 H     2.314871     1.474380     2.283485
 H     3.497497     0.176939     2.117655
 C     2.191560    -0.080109     3.804097
 H     2.880511     0.431528     4.495873
 H     1.170487     0.214814     4.107704
 C     2.332946    -1.592768     3.927901
 H     2.134095    -1.915956     4.962983
 H     3.378584    -1.878016     3.709280
 C     1.399515    -2.310542     2.960293
 H     0.357504    -2.104388     3.253446
 H     1.532939    -3.402451     3.030553
 C     1.605800    -1.854367     1.520678
 H     2.594388    -2.190397     1.165254
 H     0.857709    -2.321084     0.859143
 C     4.423511    -0.115759    -0.495722
 H     4.919648     0.151574    -1.446335
 H     4.365217     0.801709     0.112041
 C     5.224701    -1.187638     0.215290
 H     6.237511    -0.787236     0.400076
 H     4.784361    -1.373400     1.210542
 C     5.312334    -2.498369    -0.552743
 H     5.785058    -2.312794    -1.533492
 H     4.289394    -2.844034    -0.774916
 C     6.075729    -3.577881     0.196164
 H     7.110572    -3.265480     0.411397
 H     5.595689    -3.807375     1.161526
 H     6.124561    -4.514304    -0.379856
 C     2.263326     2.557403    -1.305034
 H     3.345601     2.724583    -1.453841
 H     1.861293     2.060767    -2.204267
 C     1.551988     3.871267    -1.072149
 H     1.730427     4.507174    -1.957248
 H     0.464527     3.685150    -1.044957
 C     1.991518     4.600311     0.189386
 H     3.088993     4.726295     0.169404
 H     1.780810     3.958686     1.061190
 C     1.324022     5.954662     0.363981
 H     1.554995     6.626993    -0.478110
 H     0.228248     5.856313     0.413259
 H     1.653804     6.453895     1.287853
 H    -2.354212     2.094942    -0.914781
 C    -1.342519     2.176527     0.971353
 H    -0.334578     2.121407     0.532268
 H    -1.309734     1.606452     1.915581
 C    -1.713606     3.625190     1.268748
 H    -0.986936     4.063205     1.971998
 H    -1.634861     4.211828     0.335750
 C    -3.131235     3.745537     1.816890
 H    -3.391386     4.803947     1.980075
 H    -3.178149     3.257971     2.808023
 C    -4.144431     3.083597     0.888785
 H    -4.178505     3.633755    -0.068823
 H    -5.157807     3.144477     1.318014
 C    -3.779199     1.627149     0.615466
 H    -3.825800     1.072768     1.567850
 H    -4.500361     1.157390    -0.069260
 C    -3.171342    -1.546043    -2.323772
 H    -4.011201    -1.256071    -2.975688
 H    -2.237035    -1.408846    -2.897548
 C    -3.317712    -2.983942    -1.871881
 H    -3.169649    -3.636767    -2.750109
 H    -2.489370    -3.221351    -1.179394
 C    -4.659410    -3.289963    -1.220098
 H    -5.459019    -3.151948    -1.968983
 H    -4.855511    -2.539450    -0.436681
 C    -4.738311    -4.688879    -0.632156
 H    -4.558940    -5.458396    -1.400222
 H    -3.980719    -4.833856     0.155738
 H    -5.723975    -4.888308    -0.185181
 C    -2.794549    -1.612559     1.497781
 H    -3.674716    -0.956644     1.412092
 H    -3.055561    -2.565232     1.009074
 C    -2.456610    -1.863362     2.950607
 H    -3.330735    -2.354203     3.413704
 H    -1.633645    -2.596312     3.002767
 C    -2.083655    -0.616223     3.737942
 H    -2.910587     0.113715     3.681085
 H    -1.223632    -0.134294     3.245411
 C    -1.745910    -0.901601     5.191697
 H    -2.595921    -1.361739     5.720709
 H    -0.894072    -1.596050     5.273263
 H    -1.475056     0.017959     5.732113
