  82
scf done:    -2675.189893
 C     1.066310    -2.616956    -2.628269
 H     0.754776    -2.837858    -3.660144
 H     2.051322    -2.132066    -2.725546
 C     1.178545    -3.899967    -1.815914
 H     0.217090    -4.437004    -1.767180
 H     1.917064    -4.599802    -2.250338
 H     1.496281    -3.710691    -0.777152
Rh    -0.373210    -1.404163    -1.630212
 C     2.769111    -1.344339    -0.003463
 O     2.187409     0.578273    -1.835161
 O     0.990731     0.664753     0.486744
 C    -2.028231     1.534523    -0.529539
 O    -3.415275    -0.808243    -0.606631
 O    -1.725644    -0.335117     1.265955
 P    -1.854745    -0.266528    -0.397727
 P     1.413309    -0.372994    -0.721509
 C    -1.586577    -1.925594    -2.966401
 O    -2.288213    -2.153313    -3.842263
 C     2.574321    -1.912749     1.261661
 C     3.921318    -1.650396    -0.734700
 C     4.692862    -3.055523     1.072444
 C     4.881706    -2.503277    -0.193598
 C     3.538345    -2.759757     1.798117
 H     1.669800    -1.690809     1.831758
 H     3.380356    -3.193928     2.787907
 H     5.446808    -3.724953     1.493520
 H     5.780337    -2.741657    -0.767326
 H     4.059863    -1.226016    -1.730780
 C     2.803793     1.776751    -1.566930
 C     4.193711     1.863871    -1.630646
 H     4.776205     0.977753    -1.885312
 C     2.034477     2.899603    -1.260487
 H     0.948029     2.811343    -1.221947
 C     4.816372     3.080236    -1.357095
 H     5.905901     3.148203    -1.403088
 C     2.668195     4.105965    -0.978902
 H     2.064001     4.978329    -0.719644
 C     4.058857     4.200974    -1.020383
 H     4.551879     5.149016    -0.795075
 C     1.643859     1.380934     1.454235
 C     3.025731     1.392077     1.638334
 H     3.679099     0.808153     0.992844
 C     0.813588     2.148102     2.273737
 H    -0.260579     2.123915     2.084969
 C     3.567795     2.181251     2.651488
 H     4.651768     2.194430     2.786834
 C     1.369118     2.929607     3.281460
 H     0.714868     3.532736     3.915725
 C     2.750254     2.949365     3.477387
 H     3.187257     3.565534     4.265991
 C    -1.616062     2.116648    -1.732466
 C    -2.555196     2.335371     0.491087
 C    -2.250125     4.290119    -0.897176
 C    -2.662289     3.710457     0.304098
 C    -1.729666     3.494134    -1.916524
 H    -1.189025     1.478955    -2.513613
 H    -1.401279     3.946640    -2.855049
 H    -2.334757     5.370500    -1.037948
 H    -3.072009     4.335830     1.100782
 H    -2.875629     1.876099     1.428215
 C    -4.492981    -0.256175     0.038666
 C    -5.259618     0.707842    -0.615390
 H    -4.974315     1.016672    -1.622567
 C    -4.823196    -0.675834     1.327416
 H    -4.211900    -1.437818     1.813664
 C    -6.362854     1.259782     0.031023
 H    -6.963914     2.015550    -0.480066
 C    -5.927691    -0.115050     1.965393
 H    -6.189283    -0.442575     2.974449
 C    -6.698025     0.854113     1.322695
 H    -7.563281     1.289785     1.827229
 C    -1.144842    -1.377462     1.924708
 C    -1.104798    -2.674381     1.402465
 H    -1.550838    -2.887304     0.427079
 C    -0.585957    -1.104853     3.175669
 H    -0.619709    -0.083070     3.555819
 C    -0.486898    -3.688269     2.133599
 H    -0.447203    -4.695869     1.713785
 C     0.013742    -2.130754     3.901871
 H     0.450659    -1.909797     4.878579
 C     0.070831    -3.425725     3.383645
 H     0.547283    -4.226897     3.952635
