  50
scf done:    -1806.428442
 C    -3.631870    -1.026153    -1.001501
 H    -4.271598    -0.358510    -1.603182
 H    -3.196638    -1.724911    -1.738966
 C    -4.496230    -1.802478    -0.014426
 H    -5.048312    -1.128155     0.659298
 H    -5.247482    -2.438198    -0.520822
 H    -3.901033    -2.465390     0.634821
Rh    -2.122705     0.154528    -0.060240
 C     1.004350    -1.669092     0.037796
 C    -1.259189    -3.280336    -0.362024
 C    -0.358750    -1.619899    -2.498803
 C     1.086103     1.620138     0.017269
 C    -1.003172     3.335377     0.811874
 C    -0.107481     1.374756     2.636903
 P    -0.540817     1.554234     0.862909
 P    -0.673724    -1.571671    -0.696566
 C    -3.512600     1.301465     0.342319
 O    -4.400215     1.986708     0.599338
 C     2.185446    -1.613155    -0.708580
 H     2.151116    -1.507228    -1.793715
 C     1.097312    -1.794148     1.430844
 H     0.183343    -1.834529     2.031299
 C     3.429937    -1.668272    -0.085173
 H     4.357198    -1.606475    -0.657498
 C     2.332282    -1.858013     2.067930
 H     2.416293    -1.956699     3.151875
 C     3.486867    -1.787401     1.296150
 F     4.673899    -1.825100     1.898331
 H    -1.381811    -3.417731     0.721025
 H    -2.235421    -3.433937    -0.840481
 H    -0.533744    -4.014965    -0.740922
 H     0.233316    -2.500167    -2.791203
 H    -1.332825    -1.648702    -3.006480
 H     0.160172    -0.702673    -2.808517
 C     2.318432     1.604891     0.677284
 H     2.363522     1.543648     1.765982
 C     1.073634     1.684670    -1.383542
 H     0.112114     1.683540    -1.907462
 C     3.513457     1.644361    -0.038201
 H     4.481620     1.613525     0.464937
 C     2.258048     1.734377    -2.111554
 H     2.262224     1.787356    -3.202011
 C     3.466728     1.707375    -1.423865
 F     4.606662     1.728386    -2.112921
 H    -1.205982     3.621946    -0.229651
 H    -1.925820     3.484524     1.392184
 H    -0.201592     3.971341     1.216210
 H     0.388016     0.410519     2.809548
 H     0.538115     2.190860     2.995840
 H    -1.048125     1.384795     3.205945
