  98
scf done:    -2434.936943
 C     0.842685     0.356429    -3.191457
 H     0.857841    -0.395204    -3.997575
 H    -0.041015     0.980926    -3.396587
 C     2.103364     1.210503    -3.258621
 H     3.016209     0.601756    -3.158210
 H     2.186570     1.763379    -4.214249
 H     2.143384     1.965401    -2.453416
Rh     0.822788    -0.493409    -1.251479
 C    -0.987919     2.368934    -0.082509
 C    -2.312768     0.904520    -2.141088
 C    -2.194598    -0.202238     0.509173
 C     0.145779    -1.995735     1.964426
 C     2.843923    -2.055097     1.166525
 C     1.632008     0.495555     1.932091
 P     1.321801    -1.029284     0.940935
 P    -1.144614     0.658384    -0.733773
 C     1.763917    -1.899977    -1.977936
 O     2.221546    -2.857840    -2.429793
 C    -1.432425     2.772685     1.182152
 H    -1.939332     2.066582     1.842177
 C    -0.322253     3.307716    -0.886318
 H     0.063813     3.006046    -1.863948
 C    -1.235837     4.078194     1.631414
 H    -1.576103     4.401808     2.616644
 C    -0.123579     4.614555    -0.455020
 H     0.395064     5.349599    -1.072990
 C    -0.587361     4.982811     0.802883
 F    -0.384033     6.228439     1.231570
 H    -3.222640     1.399897    -1.766182
 H    -1.835241     1.612037    -2.836659
 C    -2.625120    -0.403172    -2.853351
 H    -1.673489    -0.909525    -3.091526
 H    -3.162348    -1.082701    -2.167589
 C    -3.446502    -0.214702    -4.120353
 H    -2.900134     0.456938    -4.807228
 H    -4.390727     0.306941    -3.877829
 C    -3.759040    -1.521307    -4.836169
 H    -2.811386    -2.037726    -5.069258
 H    -4.300888    -2.191346    -4.144991
 C    -4.569040    -1.334957    -6.108805
 H    -4.778054    -2.296084    -6.602520
 H    -4.033953    -0.699231    -6.832523
 H    -5.536825    -0.850727    -5.900114
 H    -2.116972    -1.270526     0.256360
 H    -1.668009    -0.116107     1.473184
 C    -3.656619     0.194662     0.657266
 H    -3.762861     1.288385     0.758535
 H    -4.209344    -0.074843    -0.258329
 C    -4.302336    -0.493623     1.853483
 H    -3.765061    -0.201130     2.774674
 H    -4.154493    -1.585443     1.766760
 C    -5.784929    -0.191991     2.014564
 H    -5.927050     0.900752     2.091314
 H    -6.317445    -0.497222     1.096383
 C    -6.407750    -0.877043     3.220219
 H    -7.480821    -0.649934     3.308951
 H    -5.921477    -0.557616     4.156100
 H    -6.302356    -1.971925     3.155241
 C    -0.192164    -1.683268     3.285982
 H     0.289995    -0.847759     3.797741
 C    -0.491504    -3.081360     1.346273
 H    -0.254541    -3.313881     0.303293
 C    -1.160917    -2.416671     3.969739
 H    -1.444879    -2.175551     4.995814
 C    -1.446384    -3.834017     2.021268
 H    -1.952785    -4.677515     1.548454
 C    -1.777747    -3.481368     3.325498
 F    -2.711976    -4.177330     3.968891
 H     2.994569    -2.240615     2.243344
 H     2.586735    -3.027702     0.712604
 C     4.099370    -1.492736     0.511964
 H     3.831488    -1.023112    -0.451124
 H     4.515068    -0.685377     1.138354
 C     5.169661    -2.548239     0.272803
 H     4.755236    -3.331561    -0.387209
 H     5.414871    -3.052544     1.225599
 C     6.441091    -1.987207    -0.348032
 H     6.182842    -1.477358    -1.292915
 H     6.851754    -1.202395     0.312110
 C     7.502174    -3.043676    -0.609632
 H     8.407310    -2.608550    -1.059751
 H     7.129553    -3.820449    -1.296494
 H     7.803613    -3.547568     0.323010
 H     0.638061     0.903388     2.185537
 H     2.135281     0.249175     2.882934
 C     2.412642     1.545237     1.146362
 H     3.445731     1.201336     0.978568
 H     1.965461     1.636849     0.139953
 C     2.430200     2.909581     1.817252
 H     2.858633     2.822454     2.832957
 H     1.390788     3.253999     1.954853
 C     3.204951     3.954620     1.027048
 H     4.255234     3.628512     0.924982
 H     2.803288     3.991355    -0.000816
 C     3.151739     5.342001     1.646129
 H     3.737363     6.069246     1.063351
 H     3.555084     5.337992     2.671756
 H     2.117584     5.716416     1.700472
