 114
scf done:    -2695.927734
 C    -0.556224     1.244618    -3.597658
 H    -0.629117     0.510324    -4.419749
 H    -1.596591     1.437951    -3.293809
 C     0.036205     2.546632    -4.122862
 H     1.036930     2.403014    -4.560532
 H    -0.595904     3.008916    -4.904904
 H     0.147844     3.299368    -3.324452
Rh     0.585546     0.411086    -2.003200
 C    -2.180293     1.697775    -0.087391
 C    -2.773675    -0.493800    -2.016107
 C    -1.407182    -1.081916     0.559192
 C     2.142945    -2.092900     0.007836
 C     3.764325     0.310894    -0.706959
 C     1.783077     0.404804     1.408467
 P     2.027964    -0.258353    -0.301908
 P    -1.457357     0.159347    -0.842911
 C     1.866925     0.147924    -3.294399
 O     2.607018    -0.128921    -4.135110
 H    -1.582393     1.807765     0.836119
 C    -3.659768     1.649978     0.294919
 H    -3.897954     0.756773     0.887222
 H    -4.259369     1.591414    -0.630353
 C    -4.061732     2.911117     1.053606
 H    -5.129719     2.862639     1.322323
 H    -3.503209     2.945021     2.006118
 C    -3.769412     4.165732     0.239646
 H    -4.019828     5.069968     0.818233
 H    -4.423544     4.176584    -0.651396
 C    -2.312673     4.206968    -0.207439
 H    -1.662432     4.326385     0.676779
 H    -2.133188     5.084096    -0.850562
 C    -1.904123     2.935336    -0.943266
 H    -2.466420     2.863219    -1.891089
 H    -0.841129     2.967549    -1.222285
 H    -3.339930     0.383831    -2.358969
 H    -2.196078    -0.847260    -2.881097
 C    -3.699318    -1.572686    -1.544858
 C    -3.289453    -2.914376    -1.579386
 H    -2.296515    -3.163857    -1.964422
 C    -4.988194    -1.287923    -1.086780
 H    -5.327270    -0.249720    -1.066759
 C    -4.140785    -3.924619    -1.142640
 H    -3.809570    -4.965486    -1.172512
 C    -5.861410    -2.289826    -0.649119
 C    -7.238462    -1.932951    -0.169967
 H    -7.201407    -1.124505     0.576362
 H    -7.867408    -1.577606    -1.002282
 H    -7.744524    -2.795101     0.286478
 C    -5.418342    -3.615784    -0.675338
 H    -6.082907    -4.414618    -0.335124
 H    -1.565525    -2.063802     0.090880
 H    -0.361171    -1.061958     0.881076
 C    -2.292691    -0.914875     1.756788
 C    -1.976458     0.024031     2.746426
 H    -1.072528     0.632187     2.657944
 C    -3.444671    -1.693618     1.917651
 H    -3.686946    -2.445512     1.163726
 C    -2.821726     0.206656     3.838373
 H    -2.571488     0.952031     4.597483
 C    -4.299112    -1.527990     3.010887
 C    -5.526745    -2.379352     3.163103
 H    -5.645160    -3.062343     2.310900
 H    -5.478937    -2.985668     4.081852
 H    -6.435867    -1.761232     3.232687
 C    -3.980035    -0.554531     3.966344
 H    -4.639650    -0.403405     4.825563
 H     1.077422    -2.380864     0.077181
 C     2.834041    -2.561288     1.290531
 H     2.360528    -2.105229     2.173159
 H     3.883517    -2.227822     1.294063
 C     2.781718    -4.081929     1.418092
 H     3.318500    -4.398448     2.327155
 H     1.731159    -4.399040     1.551610
 C     3.356997    -4.773402     0.187973
 H     3.290765    -5.868247     0.295063
 H     4.433281    -4.533098     0.106915
 C     2.645247    -4.315945    -1.079653
 H     1.589076    -4.639174    -1.040752
 H     3.084224    -4.797362    -1.968372
 C     2.698568    -2.799910    -1.231433
 H     3.747317    -2.497162    -1.391807
 H     2.138182    -2.476279    -2.123155
 H     4.021422    -0.199840    -1.646448
 H     3.637170     1.372685    -0.967936
 C     4.848206     0.144308     0.312134
 C     4.979109     1.048502     1.376030
 H     4.306756     1.908510     1.441199
 C     5.752103    -0.919422     0.230463
 H     5.675899    -1.615830    -0.610245
 C     5.963803     0.858998     2.340973
 H     6.055466     1.567539     3.167896
 C     6.746945    -1.126958     1.192056
 C     7.689954    -2.288593     1.065728
 H     7.141552    -3.237310     0.953010
 H     8.334894    -2.181971     0.178641
 H     8.342316    -2.377066     1.945548
 C     6.835801    -0.225544     2.257253
 H     7.603557    -0.368978     3.022330
 H     0.993608    -0.198104     1.884636
 H     2.694707     0.192681     1.991393
 C     1.443449     1.867961     1.532703
 C     1.139851     2.382308     2.800437
 H     1.133536     1.713854     3.666266
 C     1.448289     2.745914     0.444156
 H     1.631782     2.351546    -0.563883
 C     0.854672     3.735095     2.964057
 H     0.613514     4.123165     3.956816
 C     1.182371     4.111882     0.592361
 C     1.234915     5.031784    -0.592180
 H     1.208168     4.471499    -1.537402
 H     0.393800     5.740645    -0.588248
 H     2.162907     5.626936    -0.585854
 C     0.880973     4.596633     1.869371
 H     0.661044     5.659083     2.006194
