  98
scf done:    -2760.423261
 C     1.170145    -1.264652    -3.364244
 H     2.236943    -1.205129    -3.113826
 H     1.017656    -2.277923    -3.766545
 C     0.781699    -0.231601    -4.410307
 H     1.453028    -0.262631    -5.289985
 H    -0.242605    -0.393085    -4.783585
 H     0.826463     0.802355    -4.023092
Rh    -0.035948    -0.781906    -1.711912
 C    -1.468790     1.649481     0.644383
 C    -3.132506     0.752011    -1.453790
 C    -2.616674    -1.067859     0.789023
 C     1.492179    -1.120820     1.186888
 C     3.445291    -0.963973    -0.943193
 C     2.304662     1.471891     0.052934
 P     1.830460    -0.254314    -0.401963
 P    -1.790664     0.132517    -0.354740
 C    -0.909982    -2.310503    -2.224068
 O    -1.245318    -3.395216    -2.437370
 C    -1.964109     2.906647     0.255625
 H    -2.645092     2.987856    -0.593271
 C    -0.578050     1.621742     1.721516
 H    -0.116454     0.683245     2.018477
 C    -1.591375     4.064643     0.921633
 H    -1.969649     5.039777     0.608584
 C    -0.208797     2.771268     2.412843
 H     0.502855     2.686113     3.234051
 C    -0.703630     4.012139     2.004433
 O    -0.368388     5.188438     2.566021
 C     0.565177     5.188928     3.610888
 H     1.532003     4.761708     3.292032
 H     0.713951     6.237223     3.899349
 H     0.198957     4.627272     4.488383
 C    -2.788844     0.884846    -2.804410
 H    -1.783744     0.577488    -3.115437
 C    -4.422927     1.127251    -1.016721
 C    -4.870450     1.037107     0.413488
 H    -4.093004     1.376314     1.111319
 H    -5.112159     0.000131     0.694930
 H    -5.769680     1.648205     0.573317
 C    -3.698675     1.368139    -3.740193
 H    -3.407750     1.462159    -4.788765
 C    -5.324370     1.603160    -1.977509
 H    -6.327697     1.893656    -1.653627
 C    -4.977893     1.722155    -3.321427
 H    -5.710365     2.098628    -4.039783
 C    -2.341041    -1.019095     2.161475
 H    -1.737503    -0.209654     2.566219
 C    -3.436733    -2.110609     0.295230
 C    -3.918368    -2.209225    -1.123917
 H    -3.230077    -1.766269    -1.849109
 H    -4.877391    -1.677000    -1.238554
 H    -4.078354    -3.258923    -1.405226
 C    -2.827492    -1.976566     3.044751
 H    -2.582732    -1.902296     4.106991
 C    -3.902852    -3.072743     1.201688
 H    -4.531860    -3.880705     0.817558
 C    -3.606886    -3.021913     2.559847
 H    -3.995245    -3.789404     3.234266
 C     1.742594    -0.597005     2.463783
 H     2.215777     0.380610     2.571215
 C     0.846105    -2.361454     1.106743
 H     0.606218    -2.766706     0.120282
 C     1.346468    -1.276567     3.608313
 H     1.518665    -0.859135     4.602199
 C     0.464786    -3.064861     2.244375
 H    -0.056674    -4.014489     2.127601
 C     0.698253    -2.515222     3.509473
 O     0.319740    -3.088901     4.666861
 C    -0.299544    -4.346729     4.622677
 H     0.360164    -5.109659     4.173768
 H    -0.512568    -4.627559     5.661827
 H    -1.245754    -4.316156     4.055757
 C     3.898802    -2.168945    -0.393406
 H     3.311653    -2.658594     0.385604
 C     4.202885    -0.334408    -1.955579
 C     3.784191     0.952418    -2.605772
 H     4.083588     1.825401    -2.003929
 H     2.694130     1.012201    -2.729737
 H     4.245817     1.050319    -3.598391
 C     5.093399    -2.748572    -0.808828
 H     5.426763    -3.687470    -0.360679
 C     5.403127    -0.934806    -2.356248
 H     5.991808    -0.451196    -3.140881
 C     5.854247    -2.124502    -1.793705
 H     6.794356    -2.567016    -2.131659
 C     1.472833     2.460214    -0.491015
 H     0.624192     2.143053    -1.102969
 C     3.437427     1.856176     0.805124
 C     4.489672     0.900858     1.295333
 H     5.243869     0.733143     0.508940
 H     4.096749    -0.087607     1.556255
 H     5.009185     1.313869     2.172267
 C     1.703413     3.812971    -0.274315
 H     1.033136     4.558588    -0.705647
 C     3.635687     3.225825     1.037145
 H     4.502088     3.533828     1.629754
 C     2.786550     4.196050     0.512298
 H     2.981188     5.253876     0.706662
