 106
scf done:    -2839.445297
 C    -1.124976    -1.375258    -3.134720
 H    -1.351330    -2.430193    -3.366815
 H    -2.103405    -0.874820    -3.066686
 C    -0.314852    -0.779182    -4.278644
 H     0.629252    -1.323069    -4.440460
 H    -0.872559    -0.797691    -5.234688
 H    -0.043077     0.274715    -4.097109
Rh     0.021931    -1.119387    -1.367092
 C    -2.195244     1.705152    -0.837514
 C    -3.316733    -1.017092    -0.311851
 C    -1.567196     0.143384     1.521323
 C     1.906718    -0.447967     1.828870
 C     3.408584    -0.529995    -0.609513
 C     1.500015     1.559780    -0.291571
 P     1.698076    -0.237229    -0.008710
 P    -1.767285    -0.028475    -0.295625
 C     0.839995    -2.678414    -1.883235
 O     1.199216    -3.750545    -2.121188
 H    -1.300737     2.266753    -0.506101
 C    -3.436326     2.354369    -0.226627
 H    -3.425253     2.284172     0.871947
 H    -4.330131     1.806576    -0.569273
 C    -3.558476     3.812556    -0.661265
 H    -4.452903     4.267733    -0.205054
 H    -2.688147     4.378981    -0.280287
 C    -3.610617     3.930359    -2.179450
 H    -3.669751     4.987927    -2.484655
 H    -4.535614     3.447960    -2.544067
 C    -2.401536     3.258756    -2.818180
 H    -1.494718     3.825214    -2.545366
 H    -2.473617     3.296706    -3.917304
 C    -2.240951     1.811338    -2.362577
 H    -3.084170     1.207387    -2.742698
 H    -1.327335     1.376803    -2.791878
 C    -4.435327    -0.660296     0.464258
 H    -4.407777     0.236148     1.084905
 C    -3.365976    -2.225426    -1.008062
 H    -2.481489    -2.544994    -1.561676
 C    -5.570257    -1.452428     0.492582
 H    -6.439490    -1.179467     1.093924
 C    -4.500644    -3.037136    -0.986117
 H    -4.492560    -3.973024    -1.545161
 C    -5.618614    -2.646492    -0.243798
 O    -6.762594    -3.350965    -0.158842
 C    -6.863651    -4.559571    -0.859096
 H    -6.113265    -5.295019    -0.519417
 H    -7.866483    -4.957112    -0.657797
 H    -6.748616    -4.413985    -1.947582
 C    -1.614410    -1.033355     2.291235
 H    -1.834186    -1.985102     1.800614
 C    -1.303214     1.342827     2.181538
 H    -1.271604     2.280468     1.626666
 C    -1.383662    -1.009733     3.654304
 H    -1.422179    -1.921986     4.252265
 C    -1.046995     1.380613     3.556274
 H    -0.829781     2.338329     4.030180
 C    -1.072391     0.197922     4.298651
 O    -0.802537     0.114625     5.616650
 C    -0.435999     1.278095     6.303357
 H    -1.241181     2.033732     6.291386
 H    -0.242152     0.983356     7.342332
 H     0.480971     1.728515     5.883140
 H     1.005645     0.019676     2.262161
 C     3.154923     0.202500     2.425154
 H     3.197334     1.276879     2.188181
 H     4.048811    -0.245269     1.958621
 C     3.218603    -0.016704     3.934157
 H     4.121537     0.462535     4.346938
 H     2.352095     0.476219     4.412945
 C     3.198644    -1.502854     4.270794
 H     3.222366    -1.653255     5.362484
 H     4.115027    -1.973022     3.870009
 C     1.973460    -2.181002     3.669543
 H     1.070920    -1.782139     4.161665
 H     1.990619    -3.263779     3.875047
 C     1.866724    -1.941200     2.166588
 H     2.708550    -2.446374     1.659187
 H     0.944725    -2.387247     1.761259
 C     4.343592     0.509227    -0.745505
 H     4.043836     1.538878    -0.538117
 C     3.834705    -1.831983    -0.883928
 H     3.133646    -2.664254    -0.805525
 C     5.646600     0.254294    -1.143822
 H     6.373372     1.060766    -1.258685
 C     5.145161    -2.105675    -1.273693
 H     5.431348    -3.136873    -1.481161
 C     6.061950    -1.057809    -1.410405
 O     7.344284    -1.212531    -1.792319
 C     7.810689    -2.500224    -2.083120
 H     7.255203    -2.959125    -2.919927
 H     8.864287    -2.395833    -2.371742
 H     7.745779    -3.168877    -1.206519
 C     1.437120     1.975098    -1.637173
 H     1.613137     1.242505    -2.430827
 C     1.274269     2.514698     0.698062
 H     1.319332     2.234742     1.750838
 C     1.140447     3.283458    -1.971231
 H     1.086477     3.605112    -3.012785
 C     0.952199     3.837587     0.374969
 H     0.764481     4.550300     1.178552
 C     0.870850     4.224795    -0.964791
 O     0.527860     5.458384    -1.385215
 C     0.185850     6.425074    -0.431912
 H     1.029085     6.652258     0.243762
 H    -0.079161     7.334150    -0.986095
 H    -0.682057     6.110708     0.174794
