  94
scf done:    -3030.711251
 C     0.564077    -3.273154    -1.517388
 H     0.429241    -3.694999    -2.525616
 H     1.643895    -3.063683    -1.441115
 C     0.138176    -4.274795    -0.452139
 H     0.726995    -5.210546    -0.502942
 H     0.266281    -3.874072     0.567331
 H    -0.923370    -4.553358    -0.551219
Rh    -0.641249    -1.535259    -1.249647
 C     1.741151    -1.200463     1.228487
 O     2.558820    -0.691495    -1.358945
 O     1.071409     1.042761    -0.176637
 C    -2.077008     1.748738    -1.485770
 O    -3.602898    -0.132957    -0.530587
 O    -1.634167     0.591877     0.951593
 P    -1.967165     0.158650    -0.631455
 P     1.221149    -0.598078    -0.405722
 C    -1.866539    -2.352586    -2.425564
 O    -2.556091    -2.811010    -3.216016
 C     1.099447    -0.656138     2.350717
 H     0.387718     0.161685     2.219723
 C     2.586175    -2.307000     1.392165
 H     3.070899    -2.770201     0.531731
 C     1.332443    -1.172948     3.620437
 H     0.844159    -0.759754     4.504702
 C     2.823785    -2.830943     2.658663
 H     3.485801    -3.685652     2.806289
 C     2.199737    -2.251129     3.756850
 F     2.429012    -2.747985     4.968583
 C     3.880442    -0.944225    -1.083664
 C     4.601877    -0.268553    -0.102128
 H     4.123698     0.494139     0.511859
 C     4.502820    -1.920896    -1.861547
 H     3.914903    -2.438140    -2.622199
 C     5.944198    -0.585593     0.096041
 H     6.499197    -0.054114     0.873825
 C     5.844664    -2.219611    -1.652271
 H     6.321003    -2.988667    -2.266797
 C     6.593043    -1.559681    -0.668663
 C     8.047236    -1.872086    -0.465406
 H     8.397742    -1.535177     0.520517
 H     8.670756    -1.372375    -1.225564
 H     8.242736    -2.951903    -0.545983
 C     2.102111     1.930899    -0.017572
 C     2.788261     2.397802    -1.139887
 H     2.510975     2.022489    -2.125894
 C     2.442038     2.391998     1.252070
 H     1.895854     2.027738     2.122553
 C     3.829008     3.303984    -0.980397
 H     4.370668     3.653090    -1.863759
 C     3.486889     3.304971     1.393275
 H     3.752177     3.658336     2.393317
 C     4.203174     3.771824     0.287155
 C     5.331934     4.749329     0.439983
 H     5.095694     5.710113    -0.045102
 H     6.254110     4.369899    -0.027289
 H     5.548135     4.953166     1.497904
 C    -1.030356     2.082046    -2.351966
 H    -0.227485     1.359240    -2.517543
 C    -3.130231     2.652342    -1.288745
 H    -3.957392     2.387525    -0.628073
 C    -1.012135     3.314484    -2.997261
 H    -0.205611     3.597776    -3.675455
 C    -3.123537     3.884383    -1.931423
 H    -3.928243     4.608236    -1.792072
 C    -2.059329     4.199842    -2.770975
 F    -2.049624     5.381424    -3.381315
 C    -4.079973    -1.356231    -0.138649
 C    -5.248098    -1.815147    -0.747176
 H    -5.725716    -1.190714    -1.504308
 C    -3.440526    -2.137955     0.824177
 H    -2.531240    -1.778015     1.309296
 C    -5.767576    -3.054776    -0.394811
 H    -6.680906    -3.406806    -0.882689
 C    -3.971580    -3.384042     1.156230
 H    -3.456779    -3.993915     1.903436
 C    -5.137853    -3.867692     0.558372
 C    -5.701359    -5.213558     0.912171
 H    -6.738968    -5.133030     1.273386
 H    -5.108777    -5.703072     1.697618
 H    -5.714884    -5.882830     0.036919
 C    -2.166153     1.691584     1.573567
 C    -3.395075     1.604517     2.224485
 H    -3.937832     0.657328     2.219474
 C    -1.456925     2.892158     1.562866
 H    -0.505998     2.940251     1.029661
 C    -3.911200     2.730567     2.861677
 H    -4.878350     2.659845     3.367216
 C    -1.986352     4.005796     2.207118
 H    -1.429088     4.946515     2.188190
 C    -3.220655     3.948556     2.866699
 C    -3.771009     5.148890     3.581286
 H    -4.868044     5.112160     3.646089
 H    -3.489728     6.083709     3.074555
 H    -3.384202     5.208406     4.612579
