  82
scf done:    -5432.013098
 C     2.490693    -2.776471     0.184505
 H     2.887468    -3.464998    -0.570027
 H     3.311563    -2.153863     0.561804
 C     1.665877    -3.436896     1.265761
 H     1.635213    -4.534178     1.196212
 H     1.968556    -3.144576     2.281999
 H     0.569951    -3.136518     1.204990
Rh     0.749521    -1.782436    -0.407342
 C     1.602994     0.460517     2.262029
 O     3.162027     0.459606     0.195472
 O     0.808558     1.439358    -0.144749
 C    -2.013254    -0.254963    -2.092331
 O    -2.528438    -2.256751    -0.461691
 O    -1.857268    -0.004670     0.594101
 P    -1.368958    -1.062517    -0.609185
 P     1.565701     0.080630     0.486753
 C     0.865134    -2.500236    -2.145028
 O     1.003445    -2.766386    -3.253967
 C     0.562203    -0.065244     3.035017
 H    -0.191474    -0.699028     2.559319
 C     2.570967     1.271810     2.865752
 H     3.385967     1.678292     2.264690
 C     0.471779     0.226513     4.392183
 H    -0.338318    -0.174764     5.002886
 C     2.493261     1.564833     4.222239
 H     3.239373     2.199414     4.702931
 C     1.440124     1.043412     4.975885
Cl     1.337137     1.412235     6.661700
 C     3.806330     0.176692    -0.974867
 C     5.149732    -0.189291    -0.891409
 H     5.619499    -0.250177     0.091880
 C     3.178694     0.258996    -2.219051
 H     2.128755     0.543123    -2.283598
 C     5.867722    -0.476446    -2.046722
 H     6.918428    -0.765016    -1.991534
 C     3.892443    -0.039130    -3.376713
 H     3.406450     0.008689    -4.352145
 C     5.233231    -0.405614    -3.287173
Cl     6.122138    -0.774890    -4.727701
 C     1.069310     2.705376     0.312908
 C     2.097029     3.454836    -0.258012
 H     2.699360     3.019886    -1.057667
 C     0.289389     3.239210     1.339417
 H    -0.499364     2.628898     1.782149
 C     2.345531     4.746454     0.197890
 H     3.145504     5.346343    -0.238672
 C     0.534556     4.529789     1.796461
 H    -0.065361     4.958846     2.600326
 C     1.564156     5.276745     1.224270
Cl     1.876518     6.881701     1.795379
 C    -3.300290    -0.488483    -2.588139
 H    -3.940928    -1.228395    -2.105682
 C    -1.188556     0.688883    -2.714499
 H    -0.189920     0.876781    -2.313009
 C    -3.763712     0.221761    -3.689901
 H    -4.766253     0.051683    -4.085163
 C    -1.645600     1.406375    -3.814055
 H    -1.013632     2.148673    -4.303649
 C    -2.934203     1.168177    -4.292849
Cl    -3.511945     2.058457    -5.656645
 C    -2.232844    -3.322563     0.349681
 C    -1.899357    -4.544550    -0.232470
 H    -1.889785    -4.627854    -1.320377
 C    -2.234628    -3.179405     1.737923
 H    -2.485750    -2.213379     2.179443
 C    -1.566841    -5.628520     0.573089
 H    -1.296191    -6.588345     0.130675
 C    -1.898800    -4.261531     2.547562
 H    -1.888573    -4.162629     3.634001
 C    -1.560679    -5.479474     1.960223
Cl    -1.113988    -6.818428     2.962484
 C    -3.010043     0.734352     0.493107
 C    -4.237047     0.187840     0.866596
 H    -4.283861    -0.841074     1.225488
 C    -2.936540     2.041675     0.012146
 H    -1.968225     2.443953    -0.288182
 C    -5.395841     0.952740     0.761999
 H    -6.363437     0.538893     1.049919
 C    -4.091842     2.808018    -0.094528
 H    -4.048092     3.830157    -0.473386
 C    -5.318117     2.258460     0.279757
Cl    -6.759911     3.207512     0.142193
