  96
scf done:    -3006.881093
 C     0.462187    -3.233432    -2.497984
 H    -0.093126    -3.723478    -3.312487
 H     1.467058    -3.047001    -2.906021
 C     0.510207    -4.165030    -1.295981
 H     1.002456    -5.128064    -1.531232
 H     1.048668    -3.731362    -0.435437
 H    -0.499768    -4.403821    -0.928577
Rh    -0.503059    -1.494461    -1.807617
 C     1.681042    -0.730880     0.985950
 C     3.034579    -1.592709    -1.446187
 C     1.809578     1.056518    -1.372783
 C    -1.796784     1.737513    -0.585798
 C    -3.702497    -0.143199    -1.377718
 C    -2.167781    -0.607427     1.073337
 P    -1.956069    -0.085687    -0.688375
 P     1.500262    -0.712914    -0.838256
 C    -1.577499    -1.659235    -3.283802
 O    -2.165328    -1.665598    -4.276568
 C     1.176266     0.314916     1.772616
 H     0.729990     1.191625     1.300596
 C     2.209482    -1.845753     1.647502
 H     2.560845    -2.708626     1.078314
 C     1.244212     0.263005     3.161198
 H     0.852030     1.100941     3.744363
 C     2.278791    -1.892155     3.037795
 H     2.700936    -2.776768     3.522816
 C     1.808758    -0.834624     3.823663
 C     1.915130    -0.864328     5.319264
 H     2.037767    -1.889644     5.695829
 H     2.785488    -0.279996     5.661434
 H     1.024882    -0.427428     5.795255
 H     2.964366    -2.626156    -1.077030
 H     2.862263    -1.656918    -2.530062
 C     4.377437    -0.991536    -1.176563
 C     4.962538    -0.130308    -2.116411
 H     4.450361     0.059576    -3.063357
 C     5.088892    -1.248931     0.004262
 H     4.674324    -1.926599     0.750863
 C     6.186083     0.488831    -1.878116
 H     6.637208     1.164928    -2.606264
 C     6.316026    -0.642298     0.258226
 H     6.869277    -0.838428     1.178360
 C     6.846426     0.230612    -0.683935
 F     8.016215     0.819049    -0.442823
 H     2.488935     0.954415    -2.234188
 H     0.849956     1.394336    -1.783607
 C     2.329606     2.088737    -0.409683
 C     1.580225     3.251763    -0.195614
 H     0.640857     3.388396    -0.732161
 C     3.526713     1.940549     0.302090
 H     4.127240     1.041682     0.177164
 C     1.995649     4.233816     0.700223
 H     1.404289     5.135221     0.871783
 C     3.960744     2.913540     1.196504
 H     4.891738     2.794944     1.753597
 C     3.186241     4.050554     1.389728
 F     3.591889     4.980557     2.255359
 C    -1.620356     2.418307    -1.800402
 H    -1.498103     1.843672    -2.724582
 C    -1.934461     2.491113     0.582304
 H    -2.092660     1.999763     1.544047
 C    -1.611061     3.807697    -1.844122
 H    -1.482060     4.315524    -2.804045
 C    -1.900530     3.884743     0.535932
 H    -2.010725     4.453047     1.463486
 C    -1.746215     4.569092    -0.672972
 C    -1.681985     6.066798    -0.719533
 H    -2.098776     6.517994     0.191705
 H    -0.638096     6.410646    -0.812618
 H    -2.230697     6.467175    -1.584854
 H    -3.618540     0.307522    -2.378356
 H    -3.936157    -1.204929    -1.541069
 C    -4.746910     0.538328    -0.552827
 C    -5.487800    -0.172740     0.401701
 H    -5.334547    -1.249392     0.513153
 C    -4.982156     1.915363    -0.675820
 H    -4.421939     2.493724    -1.413810
 C    -6.424969     0.460864     1.214098
 H    -7.005990    -0.090711     1.955243
 C    -5.914944     2.564262     0.127070
 H    -6.101523     3.635465     0.033073
 C    -6.623771     1.827593     1.067889
 F    -7.516867     2.443920     1.841440
 H    -1.379617    -0.095464     1.642679
 H    -3.136785    -0.236770     1.448630
 C    -2.021704    -2.091370     1.277920
 C    -2.809982    -3.026611     0.592955
 H    -3.549146    -2.693165    -0.136460
 C    -1.076383    -2.574401     2.188866
 H    -0.444699    -1.867880     2.729770
 C    -2.670194    -4.393601     0.814291
 H    -3.279624    -5.123529     0.278940
 C    -0.917308    -3.938273     2.418682
 H    -0.173565    -4.312776     3.124146
 C    -1.720684    -4.834115     1.727632
 F    -1.574839    -6.142025     1.937476
