  84
scf done:    -2452.963283
 C    -1.264944     0.277014    -3.211450
 H    -1.535979    -0.635524    -3.767042
 H    -2.214144     0.712933    -2.865877
 C    -0.548490     1.255991    -4.130366
 H     0.341178     0.809576    -4.602967
 H    -1.208070     1.609226    -4.945660
 H    -0.205907     2.158377    -3.594420
Rh    -0.020692    -0.089799    -1.551620
 C    -1.956202     1.410594     1.103684
 C    -3.544621    -0.057745    -0.776266
 C    -1.927438    -1.531036     0.895939
 C     2.276778    -1.583189     0.762130
 C     3.322588     0.458406    -0.992044
 C     1.940813     1.296327     1.229509
 P     1.797177    -0.008296    -0.056652
 P    -1.832570     0.018217    -0.090479
 C     0.935580    -1.169084    -2.705207
 O     1.415563    -1.997713    -3.346321
 C    -1.871473     1.228231     2.488207
 H    -1.774405     0.221596     2.895679
 C    -2.051448     2.723409     0.581427
 C    -2.051107     2.990635    -0.894162
 H    -2.949721     2.591812    -1.389879
 H    -1.192849     2.497871    -1.384721
 H    -1.997972     4.067998    -1.100898
 C    -1.906128     2.312016     3.362441
 H    -1.829533     2.143517     4.438882
 C    -2.113075     3.793787     1.478835
 H    -2.200148     4.807926     1.078742
 C    -2.043248     3.599973     2.856414
 H    -2.082217     4.458310     3.531282
 C    -3.797996    -1.046267    -1.735819
 C    -4.597541     0.746530    -0.331576
 C    -6.126690    -0.411078    -1.803272
 C    -5.882352     0.572076    -0.847557
 C    -5.080766    -1.223420    -2.243564
 H    -2.975645    -1.678994    -2.080373
 H    -5.264813    -1.998265    -2.991531
 H    -7.133448    -0.546978    -2.205590
 H    -6.697396     1.208241    -0.493688
 H    -4.418172     1.511759     0.427749
 C    -1.047539    -2.572509     0.591516
 C    -2.935698    -1.740961     1.847844
 C    -2.118927    -3.982769     2.231663
 C    -3.019672    -2.954876     2.522596
 C    -1.142802    -3.794581     1.256951
 H    -0.286554    -2.407084    -0.176734
 H    -0.440506    -4.594899     1.013886
 H    -2.191832    -4.937544     2.758462
 H    -3.802669    -3.107279     3.269425
 H    -3.668435    -0.956233     2.051462
 C     3.065871    -2.469308     0.008931
 H     3.433605    -2.159940    -0.971865
 C     1.757775    -2.006254     2.004321
 C     0.824498    -1.184085     2.844641
 H     0.324268    -0.399194     2.267430
 H     1.355849    -0.682265     3.668825
 H     0.048263    -1.828490     3.283026
 C     3.386656    -3.735111     0.483171
 H     4.001662    -4.403169    -0.123844
 C     2.110317    -3.281160     2.469309
 H     1.712390    -3.609448     3.433625
 C     2.917049    -4.139047     1.732014
 H     3.165677    -5.128397     2.123598
 C     3.181783     1.127447    -2.211476
 C     4.606867     0.271717    -0.463869
 C     5.576893     1.390219    -2.373274
 C     5.726031     0.726875    -1.154288
 C     4.303126     1.593888    -2.897356
 H     2.180097     1.273079    -2.626176
 H     4.176262     2.113205    -3.850181
 H     6.456914     1.747744    -2.913441
 H     6.722703     0.564847    -0.736624
 H     4.736586    -0.242899     0.490808
 C     1.230682     2.481146     1.025699
 C     2.809198     1.197782     2.323106
 C     2.220674     3.439414     3.006469
 C     2.941674     2.261945     3.210443
 C     1.370107     3.549627     1.909228
 H     0.566933     2.563098     0.162685
 H     0.803411     4.467197     1.740287
 H     2.326275     4.273430     3.704441
 H     3.615734     2.173598     4.066067
 H     3.379325     0.279708     2.485961
