  78
scf done:    -2969.552844
 C    -1.260083     0.401488    -3.462970
 H    -0.736830     0.218666    -4.414358
 H    -2.187302    -0.188634    -3.506844
 C    -1.576917     1.882047    -3.334313
 H    -1.996191     2.297103    -4.269716
 H    -2.325051     2.070486    -2.547407
 H    -0.682667     2.487328    -3.100300
Rh    -0.007531    -0.101122    -1.850685
 C    -1.669513     1.622568     0.843928
 C    -3.495992     0.208557    -0.891170
 C    -1.870121    -1.284729     0.782366
 C     1.767112    -1.521804     0.947799
 C     3.412146    -0.267895    -1.025408
 C     1.934584     1.377441     0.681085
 P     1.729254    -0.168400    -0.283451
 P    -1.750494     0.190850    -0.302278
 C     0.842954    -1.247026    -3.010642
 O     1.268851    -2.099841    -3.658146
 C    -1.187180     1.510228     2.153293
 H    -0.957126     0.526295     2.563335
 C    -1.942149     2.906632     0.346030
 H    -2.279574     3.032478    -0.685119
 C    -0.990007     2.634948     2.949836
 H    -0.601608     2.553732     3.966394
 C    -1.773694     4.037462     1.137388
 H    -1.990405     5.037635     0.757816
 C    -1.290197     3.887177     2.432089
 F    -1.096603     4.966318     3.183346
 C    -3.860821    -0.821093    -1.771085
 H    -3.108653    -1.548505    -2.087439
 C    -4.477426     1.109581    -0.466927
 H    -4.231060     1.901401     0.242407
 C    -5.165973    -0.940275    -2.233117
 H    -5.460403    -1.737745    -2.917472
 C    -5.788648     1.006071    -0.928190
 H    -6.563387     1.704265    -0.606304
 C    -6.114559    -0.015455    -1.809903
 F    -7.364507    -0.118148    -2.253268
 C    -2.679800    -1.308325     1.925856
 H    -3.221004    -0.410506     2.234619
 C    -1.239657    -2.463831     0.371633
 H    -0.627346    -2.439428    -0.534982
 C    -2.814870    -2.472130     2.675191
 H    -3.432686    -2.507672     3.574276
 C    -1.387689    -3.641880     1.097086
 H    -0.900824    -4.568390     0.789743
 C    -2.161309    -3.624943     2.249690
 F    -2.288544    -4.739501     2.963357
 C     2.150498    -2.801155     0.518037
 H     2.518392    -2.945613    -0.501518
 C     1.275339    -1.373144     2.249597
 H     0.959520    -0.390535     2.602071
 C     2.068015    -3.896944     1.370099
 H     2.368470    -4.895573     1.047788
 C     1.179599    -2.462477     3.111049
 H     0.791498    -2.357166     4.125470
 C     1.578547    -3.713104     2.658929
 F     1.482692    -4.760133     3.472240
 C     3.608029     0.266118    -2.303867
 H     2.747669     0.647787    -2.860710
 C     4.519774    -0.753992    -0.318801
 H     4.392076    -1.171481     0.682586
 C     4.876458     0.310365    -2.875067
 H     5.041173     0.720223    -3.872973
 C     5.792135    -0.724871    -0.880558
 H     6.663260    -1.108894    -0.346726
 C     5.953178    -0.190631    -2.154397
 F     7.167841    -0.161114    -2.694542
 C     1.375934     2.540769     0.140423
 H     0.778485     2.469912    -0.773795
 C     2.708978     1.474798     1.843835
 H     3.183439     0.585807     2.265260
 C     1.565982     3.776147     0.750145
 H     1.133235     4.690211     0.341548
 C     2.888192     2.700231     2.477861
 H     3.479141     2.792880     3.390822
 C     2.310082     3.836303     1.921306
 F     2.475440     5.008917     2.524939
