  98
scf done:    -3155.493738
 C     1.151510    -0.077823    -3.356876
 H     1.703907    -0.784991    -3.994660
 H     0.175817     0.056663    -3.846437
 C     1.907848     1.241957    -3.293034
 H     2.901855     1.123386    -2.831107
 H     2.072781     1.681776    -4.295448
 H     1.376219     2.004678    -2.697486
Rh     1.023752    -0.705946    -1.345947
 C    -0.952108     2.056068    -0.121002
 C    -1.906117     0.967829    -2.585909
 C    -2.222983    -0.530100    -0.147885
 C     0.157139    -1.705460     2.005197
 C     2.866957    -2.120781     1.307771
 C     1.910582     0.594039     1.725234
 P     1.452520    -0.997546     0.914260
 P    -0.985696     0.477097    -1.062654
 C     1.934819    -2.213557    -1.859623
 O     2.375680    -3.232820    -2.174256
 C    -1.258759     2.115955     1.245270
 H    -1.600615     1.222705     1.772772
 C    -0.515545     3.230632    -0.750281
 H    -0.262045     3.221109    -1.812953
 C    -1.131517     3.302928     1.963187
 H    -1.369901     3.340859     3.027451
 C    -0.383134     4.423624    -0.047323
 H    -0.036437     5.330554    -0.545188
 C    -0.687727     4.451931     1.312469
Cl    -0.489756     5.922533     2.205303
 H    -2.736907     1.636524    -2.308181
 H    -1.210612     1.556581    -3.205605
 C    -2.400864    -0.241627    -3.371192
 H    -1.599194    -0.999363    -3.417310
 H    -3.236265    -0.718541    -2.830791
 C    -2.851419     0.110053    -4.781645
 H    -2.004350     0.564663    -5.327070
 H    -3.633855     0.889720    -4.736704
 C    -3.370889    -1.086507    -5.565981
 H    -2.585280    -1.861716    -5.598833
 H    -4.215127    -1.540409    -5.016885
 C    -3.807585    -0.738213    -6.979614
 H    -4.176944    -1.622439    -7.520752
 H    -2.972670    -0.316842    -7.562294
 H    -4.615758     0.011041    -6.975587
 H    -2.228265    -1.506459    -0.658852
 H    -1.773985    -0.738869     0.833026
 C    -3.636453     0.005965     0.026402
 H    -3.610208     1.035612     0.421910
 H    -4.146244     0.072109    -0.949502
 C    -4.443663    -0.879081     0.968193
 H    -3.906864    -0.963019     1.930203
 H    -4.474297    -1.907428     0.564124
 C    -5.861505    -0.394131     1.228849
 H    -5.822355     0.628573     1.644457
 H    -6.401608    -0.305277     0.269464
 C    -6.632414    -1.303632     2.172511
 H    -7.644076    -0.920496     2.374412
 H    -6.111454    -1.408734     3.137651
 H    -6.736881    -2.316491     1.751368
 C    -0.462695    -2.886641     1.569275
 H    -0.114356    -3.366900     0.649913
 C    -0.329996    -1.086240     3.161748
 H     0.138955    -0.176894     3.542518
 C    -1.553584    -3.420072     2.244536
 H    -2.044961    -4.327526     1.890076
 C    -1.436889    -1.598111     3.838302
 H    -1.830136    -1.100072     4.726216
 C    -2.051531    -2.755035     3.366127
Cl    -3.466939    -3.357693     4.161049
 H     2.949980    -2.218703     2.403204
 H     2.573766    -3.110688     0.918588
 C     4.187866    -1.686013     0.687499
 H     4.012826    -1.351216    -0.350167
 H     4.578750    -0.807004     1.228661
 C     5.237154    -2.788573     0.687794
 H     4.849397    -3.649189     0.113468
 H     5.390166    -3.156135     1.719113
 C     6.571662    -2.351079     0.100716
 H     6.406136    -1.977043    -0.924980
 H     6.955336    -1.488811     0.674839
 C     7.613597    -3.457604     0.080360
 H     8.565575    -3.112035    -0.350318
 H     7.270275    -4.316741    -0.517995
 H     7.823378    -3.828470     1.096729
 H     0.967744     1.066181     2.041568
 H     2.501136     0.402232     2.637726
 C     2.622504     1.554470     0.778189
 H     3.608063     1.154844     0.488428
 H     2.041748     1.612768    -0.159837
 C     2.775901     2.950350     1.362934
 H     3.419144     2.912353     2.261332
 H     1.789642     3.301038     1.713447
 C     3.335853     3.962557     0.374411
 H     4.330225     3.628123     0.029204
 H     2.695309     3.968320    -0.525251
 C     3.429300     5.368158     0.945763
 H     3.821477     6.083317     0.206705
 H     4.095558     5.399297     1.823086
 H     2.441723     5.730661     1.273912
