  90
scf done:    -3847.256286
 C     0.954272    -2.337153    -3.551071
 H     0.690280    -2.209583    -4.612673
 H     2.008763    -2.013065    -3.494267
 C     0.811498    -3.807792    -3.177054
 H    -0.220821    -4.159004    -3.333787
 H     1.468806    -4.463915    -3.778882
 H     1.049551    -4.004253    -2.118056
Rh    -0.284331    -1.178654    -2.267705
 C     1.330732    -0.654749     0.912326
 C     2.883224    -2.265123    -0.849100
 C     2.554381     0.537638    -1.630536
 C    -1.487736     1.717984    -0.703747
 C    -3.536095    -0.100119    -1.547767
 C    -2.046728    -0.636368     0.843839
 P    -1.787484    -0.078637    -0.891815
 P     1.606396    -0.901059    -0.888632
 C    -1.381586    -1.078409    -3.740849
 O    -2.002326    -0.952762    -4.701889
 C     1.271903     0.583639     1.563719
 H     1.485912     1.505632     1.028582
 C     0.997067    -1.803354     1.650865
 H     0.978969    -2.784180     1.170821
 C     0.913890     0.671194     2.908187
 H     0.874069     1.642184     3.404503
 C     0.634994    -1.730260     2.989989
 H     0.358829    -2.629386     3.542487
 C     0.594601    -0.484192     3.616857
Cl     0.125113    -0.375207     5.277423
 H     2.425842    -3.100358    -0.300269
 H     2.980014    -2.601242    -1.890082
 C     4.222351    -1.904702    -0.285122
 C     5.289561    -1.603091    -1.142417
 H     5.146169    -1.671624    -2.224309
 C     4.449287    -1.839439     1.097516
 H     3.640933    -2.076460     1.791179
 C     6.536433    -1.225877    -0.648697
 H     7.368623    -0.989422    -1.313839
 C     5.688942    -1.466644     1.608139
 H     5.870149    -1.413712     2.683096
 C     6.718746    -1.157400     0.726537
 F     7.905366    -0.798364     1.210862
 H     3.421283     0.066409    -2.118729
 H     1.893059     0.891456    -2.432443
 C     2.991558     1.691033    -0.778679
 C     2.271579     2.891119    -0.821310
 H     1.415026     2.977680    -1.492199
 C     4.085004     1.603894     0.091633
 H     4.667316     0.684226     0.142357
 C     2.600891     3.967674    -0.001345
 H     2.030507     4.898252    -0.027274
 C     4.432197     2.670841     0.914638
 H     5.279590     2.607197     1.599592
 C     3.679444     3.838728     0.864892
 F     4.002887     4.856387     1.661033
 C    -1.453112     2.395469     0.518983
 H    -1.622163     1.861883     1.455004
 C    -1.272235     2.447511    -1.882819
 H    -1.267347     1.925535    -2.844375
 C    -1.192770     3.763577     0.571024
 H    -1.147992     4.287678     1.527002
 C    -1.044895     3.818686    -1.848381
 H    -0.880946     4.385037    -2.766676
 C    -0.991680     4.467046    -0.613208
Cl    -0.636178     6.161096    -0.553059
 H    -3.493468     0.394368    -2.530055
 H    -3.756704    -1.162131    -1.736855
 C    -4.557072     0.521709    -0.649706
 C    -5.311864    -0.269553     0.226676
 H    -5.180868    -1.354822     0.217879
 C    -4.746624     1.910364    -0.618557
 H    -4.174666     2.548664    -1.295823
 C    -6.221170     0.299378     1.114569
 H    -6.814398    -0.312262     1.796754
 C    -5.652012     2.495068     0.262313
 H    -5.806193     3.575196     0.289785
 C    -6.376958     1.679952     1.123002
 F    -7.243524     2.233459     1.970085
 H    -1.130889    -0.375335     1.393756
 H    -2.863435    -0.044742     1.285545
 C    -2.333551    -2.105634     1.008870
 C    -1.827054    -3.081707     0.141102
 H    -1.244088    -2.772691    -0.741316
 C    -3.092640    -2.530283     2.107496
 H    -3.501648    -1.785686     2.795799
 C    -2.058216    -4.437347     0.363261
 H    -1.668359    -5.197587    -0.316409
 C    -3.331017    -3.880823     2.346594
 H    -3.919915    -4.215814     3.202415
 C    -2.805867    -4.821809     1.468422
 F    -3.030496    -6.116077     1.690201
