  70
scf done:    -2069.782425
 C    -1.292503    -3.005589    -0.110320
 H    -1.902311    -3.337504     0.746264
 H    -2.010566    -2.688858    -0.883659
 C    -0.440458    -4.149777    -0.638336
 H     0.197419    -4.589762     0.145463
 H    -1.059604    -4.968538    -1.052249
 H     0.230569    -3.823097    -1.451654
Rh    -0.032778    -1.382635     0.354495
 C    -1.334508     0.845155    -2.162527
 C    -3.338058    -0.516661    -0.559768
 C    -1.807007     1.540665     0.609302
 C     2.107925     0.754801     2.197696
 C     3.307362    -0.620665    -0.068637
 C     1.681657     1.672722    -0.520007
 P     1.729493     0.143328     0.492181
 P    -1.603186     0.091667    -0.502376
 C     0.551787    -2.372362     1.800243
 O     0.778445    -2.868361     2.817709
 H    -0.564590     1.616936    -2.015480
 C    -0.857156    -0.190271    -3.170400
 H    -1.601885    -0.984860    -3.332033
 H     0.063130    -0.678517    -2.812929
 H    -2.242236     1.363592    -2.509122
 H    -0.641755     0.276719    -4.143515
 C    -3.858982    -1.071968     0.616752
 C    -4.144626    -0.470153    -1.699823
 C    -5.965022    -1.496090    -0.485064
 C    -5.450969    -0.960665    -1.662530
 C    -5.163936    -1.549590     0.656841
 H    -3.222018    -1.141214     1.502921
 H    -5.556589    -1.976451     1.582788
 H    -6.988061    -1.878643    -0.456619
 H    -6.068435    -0.921833    -2.563296
 H    -3.763337    -0.054481    -2.634503
 C    -2.264422     2.783006     0.158026
 C    -1.490375     1.381132     1.963423
 C    -2.044678     3.693363     2.386754
 C    -1.611136     2.450888     2.848969
 C    -2.375337     3.855065     1.041181
 H    -2.524885     2.927089    -0.892440
 H    -2.722799     4.824608     0.675728
 H    -2.131512     4.535969     3.077079
 H    -1.359786     2.314504     3.903788
 H    -1.125669     0.404945     2.300764
 H     2.160862    -0.164036     2.803990
 C     3.330980     1.627149     2.415248
 H     3.316678     2.521246     1.773206
 H     4.260326     1.077019     2.210414
 H     1.187313     1.266669     2.522124
 H     3.373359     1.969771     3.460971
 C     3.363393    -2.007656    -0.248860
 C     4.458006     0.141942    -0.321373
 C     5.688032    -1.858779    -0.888017
 C     5.639782    -0.473672    -0.724601
 C     4.547585    -2.623128    -0.653759
 H     2.460843    -2.600515    -0.074753
 H     4.573699    -3.706687    -0.791095
 H     6.615838    -2.340145    -1.206854
 H     6.528389     0.132523    -0.917049
 H     4.424803     1.228811    -0.221542
 C     2.069962     1.630327    -1.868006
 C     1.132045     2.858686    -0.016093
 C     1.363527     3.920504    -2.176570
 C     0.975584     3.972957    -0.839342
 C     1.913669     2.744302    -2.688111
 H     2.495739     0.712345    -2.280373
 H     2.221023     2.692104    -3.735399
 H     1.238886     4.794450    -2.820220
 H     0.537949     4.885387    -0.427791
 H     0.799354     2.917159     1.022331
