 104
scf done:    -2315.123356
 C     0.797873     2.986100    -1.407594
 H     1.355009     3.309263    -2.300656
 H    -0.221972     3.375620    -1.543398
 C     1.440523     3.591532    -0.166780
 H     2.477363     3.242411    -0.030024
 H     1.480886     4.697194    -0.211769
 H     0.898661     3.331629     0.759656
Rh     0.887414     0.899139    -1.093145
 C    -1.198065     0.788238     1.870751
 C    -2.257917     2.405895    -0.236034
 C    -2.246215    -0.459355    -0.499920
 C     0.380301    -2.633225    -0.534594
 C     3.044493    -1.889503    -1.112254
 C     1.900251    -1.164847     1.462749
 P     1.510659    -1.203323    -0.339794
 P    -1.174218     0.935912     0.038404
 C     1.876245     0.805193    -2.633830
 O     2.376329     0.696778    -3.668986
 C    -1.396244    -0.440573     2.516339
 H    -1.599325    -1.341521     1.932774
 C    -0.936675     1.909340     2.668817
 H    -0.773872     2.885459     2.205415
 C    -1.338344    -0.538186     3.903933
 H    -1.501590    -1.510271     4.378364
 C    -0.879358     1.806328     4.056202
 H    -0.673944     2.700673     4.651097
 C    -1.074681     0.580916     4.702420
 C    -0.966664     0.458534     6.193490
 H     0.023386     0.067604     6.483246
 H    -1.092578     1.431649     6.688696
 H    -1.719823    -0.233757     6.598163
 H    -3.114530     2.358939     0.455835
 H    -1.668083     3.294428     0.041226
 C    -2.714887     2.520662    -1.685682
 H    -1.860096     2.316071    -2.353711
 H    -3.461275     1.737626    -1.903100
 C    -3.306257     3.883163    -2.016902
 H    -2.547104     4.662087    -1.820421
 H    -4.144808     4.100041    -1.329822
 C    -3.785793     4.000251    -3.456732
 H    -2.943279     3.775039    -4.133942
 H    -4.541831     3.218611    -3.651188
 C    -4.362976     5.365793    -3.792284
 H    -4.699485     5.419692    -4.838770
 H    -3.616034     6.161857    -3.642074
 H    -5.228030     5.603013    -3.151898
 H    -2.216629    -0.439944    -1.601164
 H    -1.704362    -1.377002    -0.229968
 C    -3.677639    -0.522986     0.013166
 H    -3.700490    -0.362791     1.104483
 H    -4.278849     0.292285    -0.423645
 C    -4.321173    -1.865204    -0.312216
 H    -3.709851    -2.669984     0.135945
 H    -4.273738    -2.037203    -1.403210
 C    -5.760860    -1.999561     0.160636
 H    -5.803827    -1.811725     1.248188
 H    -6.372800    -1.205665    -0.303011
 C    -6.365484    -3.359753    -0.148538
 H    -7.407382    -3.433951     0.198033
 H    -5.795665    -4.168448     0.337763
 H    -6.360819    -3.561340    -1.232160
 C    -0.171157    -2.839048    -1.808522
 H     0.125556    -2.182101    -2.632069
 C    -0.041881    -3.461721     0.509499
 H     0.375717    -3.344081     1.511676
 C    -1.125407    -3.825294    -2.022033
 H    -1.545908    -3.959087    -3.022760
 C    -1.015326    -4.438044     0.293234
 H    -1.341232    -5.064151     1.128840
 C    -1.583090    -4.631105    -0.969497
 C    -2.673925    -5.636895    -1.189390
 H    -2.693866    -6.393986    -0.392744
 H    -3.660861    -5.143824    -1.202169
 H    -2.557781    -6.154334    -2.153205
 H     3.222034    -2.901771    -0.711902
 H     2.803500    -2.006745    -2.182527
 C     4.271905    -1.003759    -0.946812
 H     3.987292     0.051371    -1.105812
 H     4.635383    -1.066318     0.093540
 C     5.401770    -1.366459    -1.899940
 H     5.037577    -1.265503    -2.938279
 H     5.667368    -2.432246    -1.773960
 C     6.645047    -0.507645    -1.716684
 H     6.366747     0.554430    -1.834571
 H     7.005612    -0.608229    -0.677300
 C     7.765804    -0.853604    -2.683517
 H     8.649095    -0.215670    -2.528040
 H     7.442941    -0.725407    -3.729172
 H     8.087032    -1.901264    -2.565571
 H     0.947811    -1.331339     1.989168
 H     2.570453    -2.000254     1.729180
 C     2.460686     0.181429     1.909054
 H     3.465217     0.341880     1.484160
 H     1.829583     0.980632     1.479835
 C     2.501959     0.338211     3.421091
 H     3.177736    -0.418613     3.860887
 H     1.497760     0.125316     3.826830
 C     2.930302     1.728805     3.866361
 H     3.939072     1.946212     3.472883
 H     2.260553     2.470905     3.397276
 C     2.914396     1.908799     5.375431
 H     3.229652     2.921412     5.669974
 H     3.589178     1.193071     5.872575
 H     1.903457     1.743267     5.782050
