  54
scf done:    -1460.539787
 C     1.739109    -2.307391     0.145574
 H     2.136795    -2.697836    -0.807349
 H     2.593728    -1.827440     0.649170
 C     1.252054    -3.456208     1.020079
 H     0.489861    -4.069517     0.513149
 H     2.074199    -4.136821     1.313911
 H     0.792686    -3.094356     1.956038
Rh     0.173980    -0.908137    -0.152280
 C     2.152642     1.354352     1.833608
 C     3.373870     0.456986    -0.622221
 C     1.266038     2.406269    -0.702607
 C    -2.200213     1.456006    -1.488363
 C    -3.244590    -0.664546     0.207532
 C    -1.814134     1.520505     1.434375
 P    -1.745600     0.389927    -0.034452
 P     1.720064     0.808877     0.118658
 C    -0.666600    -2.220606    -1.139895
 O    -1.126103    -2.953856    -1.903655
 H     1.282828     1.928868     2.194228
 C     2.435544     0.192000     2.774143
 H     3.327937    -0.374044     2.467319
 H     1.592266    -0.515706     2.789230
 H     3.004848     2.053650     1.798783
 H     2.607644     0.548360     3.801324
 H     3.790612    -0.396109    -0.066710
 C     3.287148     0.124205    -2.103411
 H     2.955032     0.989502    -2.698649
 H     2.566854    -0.691191    -2.270654
 H     4.039720     1.315096    -0.433676
 H     4.266001    -0.190387    -2.496037
 H     0.365245     2.763334    -0.178954
 C     2.318020     3.502676    -0.757242
 H     3.193317     3.201628    -1.351620
 H     2.675431     3.783030     0.245362
 H     0.928101     2.130220    -1.714333
 H     1.906862     4.411755    -1.223138
 H    -1.739964     0.950783    -2.352579
 C    -3.667559     1.743700    -1.773502
 H    -4.172354     2.242822    -0.934237
 H    -4.224901     0.821757    -1.994134
 H    -1.632626     2.392479    -1.360420
 H    -3.764481     2.398961    -2.653427
 H    -3.341747    -1.257994    -0.716773
 C    -3.120458    -1.584512     1.412654
 H    -3.094470    -1.018273     2.356926
 H    -2.195588    -2.180220     1.354592
 H    -4.147809    -0.038154     0.279446
 H    -3.973363    -2.277896     1.467923
 H    -0.974154     2.222908     1.311417
 C    -3.098946     2.276802     1.731535
 H    -3.959408     1.600208     1.844686
 H    -3.341842     2.997949     0.937367
 H    -1.529277     0.880818     2.286717
 H    -3.006771     2.845299     2.670317
