  68
scf done:    -1843.725256
 C     1.207655    -3.103976     0.283165
 H     0.784744    -3.861527    -0.399449
 H     2.211440    -2.877529    -0.109236
 C     1.351591    -3.707535     1.676017
 H     0.390952    -4.075209     2.071173
 H     2.053415    -4.563199     1.687347
 H     1.732789    -2.978285     2.410606
Rh     0.020277    -1.343813     0.312275
 C     2.533059     1.118912    -0.352280
 C     2.786538    -1.201221    -2.014849
 C     0.610895     0.598001    -2.510011
 C    -2.814397     0.643811    -0.287075
 C    -2.009418     0.311704     2.524378
 C    -0.656356     2.232163     0.783489
 P    -1.330047     0.502796     0.806032
 P     1.508567    -0.215407    -1.107403
 C    -1.360389    -2.486074     0.746711
 O    -2.255566    -3.201738     0.867890
 C     2.535423     2.427443    -0.852335
 H     1.935954     2.678942    -1.727419
 C     3.279441     0.831130     0.815075
 C     3.232978    -0.512620     1.476315
 H     3.702400    -1.301798     0.869434
 H     2.184961    -0.833011     1.631120
 H     3.742942    -0.492246     2.448854
 C     3.279749     3.438032    -0.247968
 H     3.259982     4.449336    -0.660831
 C     4.032319     1.856630     1.398499
 H     4.610054     1.633088     2.299488
 C     4.043748     3.147463     0.877784
 H     4.637420     3.927007     1.361065
 H     3.447707    -1.645283    -1.255869
 C     2.182899    -2.287693    -2.892312
 H     1.594669    -1.866861    -3.721375
 H     1.515920    -2.938023    -2.310213
 H     3.407100    -0.501166    -2.596258
 H     2.973151    -2.913523    -3.334355
 H     0.031285     1.426723    -2.073433
 C     1.399110     1.047234    -3.733916
 H     1.813392     0.191325    -4.284688
 H     2.240787     1.709471    -3.487693
 H    -0.149129    -0.141205    -2.805001
 H     0.740166     1.590798    -4.428635
 C    -2.755445    -0.157573    -1.436967
 H    -1.891483    -0.821939    -1.545808
 C    -3.944528     1.471014    -0.085988
 C    -4.175868     2.301985     1.145552
 H    -3.274527     2.823144     1.492254
 H    -4.524553     1.673919     1.980554
 H    -4.950964     3.058350     0.960198
 C    -3.761268    -0.140456    -2.398629
 H    -3.685371    -0.779388    -3.281447
 C    -4.942199     1.478193    -1.069337
 H    -5.815649     2.119657    -0.921894
 C    -4.860076     0.691751    -2.215168
 H    -5.661720     0.725656    -2.957075
 H    -2.876461    -0.360950     2.414642
 C    -1.012814    -0.282834     3.511056
 H    -0.156241     0.383999     3.683944
 H    -0.613413    -1.237586     3.136172
 H    -2.394991     1.274262     2.891544
 H    -1.496213    -0.465896     4.483266
 H    -1.487563     2.952692     0.761500
 C     0.299940     2.546311     1.921725
 H     1.095260     1.791449     2.001773
 H    -0.222364     2.597131     2.888841
 H    -0.138471     2.334970    -0.181513
 H     0.791365     3.516570     1.755885
