  84
scf done:    -2452.967565
 C    -1.385940     0.080488    -3.431465
 H    -0.871573    -0.059328    -4.395100
 H    -2.208121    -0.650166    -3.414692
 C    -1.930292     1.497095    -3.347753
 H    -2.447604     1.797185    -4.278373
 H    -2.666713     1.602354    -2.534676
 H    -1.135103     2.245288    -3.178606
Rh    -0.026531    -0.144145    -1.841973
 C    -1.875155     1.321679     0.870871
 C    -3.504407    -0.373330    -0.816266
 C    -1.653134    -1.586541     0.839402
 C     1.993338    -1.170217     0.947793
 C     3.391867     0.270442    -1.099197
 C     1.730270     1.714348     0.601908
 P     1.728178     0.123317    -0.316052
 P    -1.764348    -0.117521    -0.259620
 C     0.989009    -1.143822    -3.002395
 O     1.542509    -1.920128    -3.650628
 C    -1.390717     1.292143     2.183014
 H    -1.036588     0.352339     2.608578
 C    -2.314623     2.551384     0.360172
 H    -2.662192     2.620530    -0.673293
 C    -1.351802     2.448554     2.956219
 H    -0.954972     2.397047     3.973911
 C    -2.298047     3.698002     1.146885
 H    -2.657129     4.641111     0.725229
 C    -1.806673     3.672698     2.456884
 C    -1.717711     4.921897     3.280338
 H    -2.396940     5.702725     2.909859
 H    -1.956872     4.729177     4.336602
 H    -0.692750     5.328859     3.248476
 C    -3.730299    -1.486112    -1.638848
 C    -4.592419     0.414023    -0.428529
 C    -6.092780    -0.992076    -1.701811
 C    -5.878547     0.107131    -0.874224
 C    -5.014294    -1.793622    -2.077086
 H    -2.887620    -2.121474    -1.924587
 H    -5.173269    -2.664516    -2.717382
 H    -7.100880    -1.229740    -2.049794
 H    -6.719474     0.732249    -0.563827
 H    -4.444978     1.267284     0.235683
 C    -0.831120    -2.649011     0.455613
 C    -2.468995    -1.722071     1.970608
 C    -1.599753    -3.945054     2.341595
 C    -2.429575    -2.890145     2.726295
 C    -0.809146    -3.826379     1.201394
 H    -0.214053    -2.533705    -0.440358
 H    -0.163720    -4.650222     0.889739
 H    -1.581282    -4.866872     2.928803
 H    -3.063916    -2.985796     3.610956
 H    -3.148816    -0.914635     2.254329
 C     2.549291    -2.392827     0.548715
 H     2.919975    -2.515047    -0.472940
 C     1.510361    -1.056185     2.255697
 H     1.066658    -0.117353     2.590351
 C     2.631251    -3.458336     1.439128
 H     3.074486    -4.401145     1.106294
 C     1.585840    -2.129499     3.137432
 H     1.192361    -2.017318     4.151461
 C     2.144090    -3.351017     2.747119
 C     2.169572    -4.519292     3.686295
 H     2.417571    -4.209357     4.712321
 H     1.178591    -5.002867     3.724978
 H     2.897763    -5.279672     3.370475
 C     3.471211     0.828772    -2.379215
 C     4.574091    -0.057621    -0.424676
 C     5.881812     0.710156    -2.306371
 C     5.811051     0.155629    -1.028726
 C     4.709387     1.050296    -2.978539
 H     2.548089     1.083177    -2.907854
 H     4.756102     1.484166    -3.980144
 H     6.853067     0.875273    -2.779024
 H     6.726751    -0.113401    -0.496437
 H     4.529741    -0.491909     0.576741
 C     0.977797     2.763231     0.066378
 C     2.539610     1.954107     1.719573
 C     1.819562     4.259824     1.761856
 C     2.573534     3.217576     2.302925
 C     1.025745     4.031906     0.640211
 H     0.350318     2.574627    -0.809928
 H     0.433088     4.842527     0.211097
 H     1.858799     5.254497     2.213192
 H     3.204219     3.394101     3.177695
 H     3.153776     1.151293     2.133820
