  94
scf done:    -3751.138186
 C    -1.151267     0.711360    -3.553731
 H    -0.773243     0.442393    -4.552169
 H    -2.176341     0.315630    -3.495347
 C    -1.149415     2.222933    -3.395874
 H    -1.676757     2.725955    -4.228437
 H    -1.658191     2.542542    -2.471295
 H    -0.127151     2.639117    -3.375606
Rh     0.091545    -0.012412    -2.021476
 C    -1.452003     1.383128     0.941647
 C    -3.342967     0.734979    -1.077012
 C    -2.065698    -1.404915     0.234787
 C     1.534085    -1.491621     0.921105
 C     3.485929    -0.645635    -0.979478
 C     2.089482     1.346805     0.404185
 P     1.781303    -0.263129    -0.415332
 P    -1.678861     0.232329    -0.482933
 C     0.797321    -1.118995    -3.300440
 O     1.091371    -1.943534    -4.052956
 C    -1.709770     1.081076     2.283179
 H    -2.094846     0.098786     2.559519
 C    -0.939775     2.651077     0.634476
 H    -0.705943     2.900131    -0.403381
 C    -1.448193     2.006125     3.291543
 H    -1.632251     1.758600     4.338289
 C    -0.696241     3.595834     1.625615
 H    -0.287468     4.575783     1.376920
 C    -0.942048     3.258611     2.954154
Cl    -0.592395     4.404287     4.209096
 C    -3.930538     1.977519    -0.803939
 H    -3.420218     2.696856    -0.160222
 C    -4.040936    -0.159885    -1.894511
 H    -3.607058    -1.138745    -2.116429
 C    -5.169723     2.311930    -1.331423
 H    -5.633889     3.276641    -1.118417
 C    -5.286136     0.161686    -2.428195
 H    -5.797349    -0.565615    -3.059094
 C    -5.858616     1.409369    -2.151438
 O    -7.053643     1.818296    -2.619499
 C    -7.780293     0.962369    -3.455661
 H    -8.045724     0.018247    -2.947686
 H    -8.703521     1.492073    -3.722715
 H    -7.226166     0.723151    -4.380432
 C    -1.322615    -2.519363    -0.180421
 H    -0.540998    -2.368399    -0.930946
 C    -3.103909    -1.604868     1.150509
 H    -3.757302    -0.773315     1.426857
 C    -1.567351    -3.776665     0.344219
 H    -0.985584    -4.645320     0.032370
 C    -3.338957    -2.858429     1.712740
 H    -4.144743    -2.976733     2.437727
 C    -2.555231    -3.953062     1.321327
 O    -2.691778    -5.197171     1.810810
 C    -3.526720    -5.403192     2.915383
 H    -4.586232    -5.201483     2.678356
 H    -3.423531    -6.459359     3.194440
 H    -3.222837    -4.776113     3.771668
 C     1.970277    -2.812059     0.742884
 H     2.599062    -3.066961    -0.113839
 C     0.719534    -1.205653     2.023141
 H     0.349957    -0.192478     2.177071
 C     1.599137    -3.816367     1.631934
 H     1.931090    -4.844970     1.482207
 C     0.339009    -2.199173     2.918240
 H    -0.311268    -1.968616     3.763501
 C     0.772037    -3.505584     2.710099
Cl     0.251260    -4.759524     3.786667
 C     4.500342    -0.956074    -0.056369
 H     4.262106    -1.042259     1.006965
 C     3.834063    -0.518084    -2.322536
 H     3.066125    -0.251452    -3.051204
 C     5.804019    -1.159369    -0.471943
 H     6.596066    -1.407591     0.237055
 C     5.145959    -0.713644    -2.756860
 H     5.374571    -0.609246    -3.817491
 C     6.139850    -1.042668    -1.830991
 O     7.430313    -1.260004    -2.143076
 C     7.828242    -1.155802    -3.482143
 H     7.657906    -0.141023    -3.882676
 H     8.903708    -1.371851    -3.508341
 H     7.301606    -1.883582    -4.124113
 C     2.075185     2.468300    -0.443169
 H     1.840557     2.331323    -1.504505
 C     2.395453     1.540720     1.750488
 H     2.446351     0.689353     2.432120
 C     2.337731     3.736591     0.043580
 H     2.324631     4.611724    -0.608938
 C     2.634231     2.817531     2.260887
 H     2.838600     2.934539     3.325079
 C     2.598988     3.926203     1.409144
 O     2.785715     5.197946     1.806739
 C     3.018678     5.453528     3.166422
 H     3.945650     4.968807     3.519705
 H     3.128053     6.540780     3.265629
 H     2.172989     5.118575     3.790786
