  74
scf done:    -2841.223067
 C    -3.523370    -1.672803     0.629169
 H    -3.883918    -2.713080     0.630881
 H    -3.726136    -1.294911     1.640632
 C    -4.307952    -0.875144    -0.402960
 H    -4.149807    -1.255881    -1.425207
 H    -5.398504    -0.905773    -0.215799
 H    -4.026066     0.193033    -0.414497
Rh    -1.504292    -1.496682     0.033489
 C    -0.799983     1.947154     0.448184
 C    -2.598986     0.961546     2.481528
 C     0.325561     0.169975     2.466223
 C     1.997207    -0.820425    -0.453231
 C     0.870908    -2.740038    -2.258992
 C     0.139248     0.206448    -2.469980
 P     0.407319    -1.205530    -1.282207
 P    -1.177877     0.411754     1.387782
 C    -1.547463    -3.318242    -0.153932
 O    -1.507328    -4.471606    -0.116189
 C     0.447015     2.582621     0.435074
 H     1.254589     2.232880     1.077603
 C    -1.797845     2.441521    -0.407008
 H    -2.778021     1.957954    -0.432168
 C     0.701966     3.657949    -0.415399
 H     1.681077     4.140166    -0.425420
 C    -1.563934     3.518506    -1.252632
 H    -2.345662     3.888602    -1.917829
 C    -0.303195     4.117590    -1.261591
Cl     0.012051     5.437394    -2.335882
 H    -3.463262     0.825377     1.808297
 C    -2.780176     0.000907     3.654644
 H    -3.777451     0.139031     4.101149
 H    -2.690255    -1.050843     3.348531
 H    -2.038949     0.190214     4.444903
 C    -2.587095     2.414037     2.943258
 H    -2.518255     3.120372     2.104612
 H    -3.520722     2.632718     3.487139
 H    -1.753121     2.623748     3.627108
 H     1.130766     0.217787     1.714057
 C     0.593237     1.230206     3.529234
 H     1.604937     1.087391     3.942455
 H     0.533448     2.257080     3.142326
 H    -0.113011     1.148145     4.367928
 C     0.366951    -1.238889     3.052277
 H     0.116659    -1.986771     2.284294
 H     1.375117    -1.448894     3.443151
 H    -0.345122    -1.358433     3.881166
 C     2.488593    -1.772810     0.454297
 H     1.953944    -2.716939     0.589347
 C     2.690072     0.389040    -0.579009
 H     2.342673     1.157070    -1.270319
 C     3.624319    -1.529445     1.216035
 H     3.995405    -2.273425     1.922745
 C     3.823256     0.654044     0.189063
 H     4.353244     1.603281     0.092539
 C     4.282707    -0.304982     1.087771
Cl     5.678708     0.023375     2.056747
 H     0.856478    -3.506135    -1.463569
 C    -0.224346    -3.104378    -3.256050
 H    -0.082084    -4.137012    -3.610834
 H    -1.226795    -3.036631    -2.808056
 H    -0.197067    -2.447284    -4.138670
 C     2.253462    -2.760026    -2.899632
 H     3.048475    -2.504542    -2.184924
 H     2.463847    -3.771149    -3.284542
 H     2.326424    -2.067194    -3.748682
 H     0.253754     1.077520    -1.802314
 C     1.117428     0.350459    -3.629736
 H     0.964499     1.323939    -4.123489
 H     2.169426     0.295936    -3.316175
 H     0.954172    -0.427819    -4.389618
 C    -1.309029     0.215380    -2.954934
 H    -2.012521     0.087488    -2.117434
 H    -1.532577     1.172072    -3.453009
 H    -1.503698    -0.593199    -3.674173
