  84
scf done:    -2849.735934
 C    -1.176612     0.723786    -3.199787
 H    -1.582237    -0.084626    -3.829635
 H    -2.047998     1.272018    -2.811505
 C    -0.309206     1.653151    -4.036367
 H     0.500141     1.113787    -4.554148
 H    -0.900468     2.175468    -4.811998
 H     0.169128     2.440151    -3.427470
Rh    -0.013611     0.031712    -1.585794
 C    -1.712312     1.592669     1.198886
 C    -3.492058     0.545137    -0.781480
 C    -2.121657    -1.290710     0.751115
 C     2.007694    -1.978204     0.597814
 C     3.369999    -0.008630    -1.007716
 C     2.111114     0.875447     1.276190
 P     1.785903    -0.292156    -0.102030
 P    -1.793856     0.300241    -0.106055
 C     0.765561    -1.088172    -2.831224
 O     1.113235    -1.927257    -3.539907
 C    -1.661563     1.285477     2.562989
 H    -1.718895     0.245606     2.885593
 C    -1.608095     2.943903     0.787753
 C    -1.565329     3.330208    -0.660726
 H    -2.517011     3.124985    -1.175078
 H    -0.799202     2.748348    -1.203260
 H    -1.338936     4.398343    -0.778887
 C    -1.534860     2.285663     3.524175
 H    -1.489064     2.019161     4.582386
 C    -1.510147     3.933013     1.771249
 H    -1.442735     4.978542     1.457511
 C    -1.473381     3.617133     3.127456
 H    -1.382798     4.412180     3.871216
 C    -4.417647     1.450910    -0.255549
 H    -4.131712     2.110955     0.567046
 C    -3.889990    -0.302844    -1.823944
 H    -3.172183    -1.017071    -2.235794
 C    -5.713703     1.521837    -0.764499
 H    -6.446804     2.225438    -0.365960
 C    -5.180556    -0.248256    -2.335644
 H    -5.503269    -0.902477    -3.147387
 C    -6.077218     0.670087    -1.798858
 F    -7.313378     0.731561    -2.287638
 C    -1.406654    -2.425231     0.356845
 H    -0.626182    -2.315061    -0.401709
 C    -3.155353    -1.430492     1.689144
 H    -3.766789    -0.568084     1.965419
 C    -1.678663    -3.672611     0.913949
 H    -1.116943    -4.560693     0.620515
 C    -3.427186    -2.665524     2.265949
 H    -4.222512    -2.792476     3.002597
 C    -2.676961    -3.771571     1.872436
 F    -2.937961    -4.954530     2.423204
 C     2.648532    -2.919295    -0.226633
 H     3.061299    -2.600011    -1.186147
 C     1.426655    -2.406039     1.810623
 C     0.629747    -1.514316     2.717958
 H     0.260096    -0.619470     2.206348
 H     1.227771    -1.167242     3.575519
 H    -0.238574    -2.061657     3.113541
 C     2.764897    -4.251538     0.149545
 H     3.267391    -4.961065    -0.511484
 C     1.573781    -3.751489     2.177049
 H     1.127816    -4.084708     3.118369
 C     2.235899    -4.668363     1.370142
 H     2.324390    -5.710780     1.685215
 C     3.349180     0.756807    -2.178040
 H     2.387771     1.086591    -2.582175
 C     4.606904    -0.426588    -0.497605
 H     4.650377    -1.020914     0.417718
 C     4.529615     1.093367    -2.837133
 H     4.523807     1.687378    -3.752595
 C     5.792339    -0.108709    -1.149919
 H     6.761490    -0.437320    -0.770421
 C     5.736935     0.651125    -2.314568
 F     6.870112     0.958582    -2.939682
 C     2.945492     0.572122     2.358878
 H     3.375383    -0.427959     2.454715
 C     1.586233     2.165363     1.165705
 H     0.950401     2.412106     0.313281
 C     3.225330     1.528667     3.328868
 H     3.864947     1.307454     4.185217
 C     1.865666     3.136673     2.122340
 H     1.454092     4.143802     2.050932
 C     2.676464     2.800323     3.197512
 F     2.937961     3.716979     4.126838
