  84
scf done:    -2301.658912
 C    -1.816948     0.781743    -2.717922
 H    -1.610259     0.773350    -3.795510
 H    -2.664656     0.110567    -2.520061
 C    -2.015523     2.173308    -2.148360
 H    -1.873786     2.973478    -2.889701
 H    -2.991711     2.302001    -1.655820
 H    -1.265721     2.402314    -1.329066
Rh    -0.120261     0.573932    -1.503566
 C    -2.995479    -0.195137     0.359445
 O    -1.936889    -2.153403    -1.003216
 O    -0.661713    -1.402718     1.095174
 C     2.860257    -0.208169     0.267028
 O     2.449221     2.314095    -0.202486
 O     0.872118     1.247102     1.506449
 P     1.506594     0.976664     0.011766
 P    -1.389553    -0.793208    -0.252977
 C     1.027896     0.322923    -2.956963
 O     1.718940    -0.036948    -3.806581
 C    -2.973529     0.992656     1.103531
 H    -2.013980     1.483774     1.297750
 C    -4.218001    -0.818360     0.105454
 H    -4.233577    -1.738767    -0.481255
 C    -4.153972     1.529934     1.600920
 H    -4.122811     2.451655     2.189039
 C    -5.398691    -0.267505     0.602112
 H    -6.351629    -0.764444     0.398909
 C    -5.388961     0.910184     1.356539
 C    -6.662631     1.516479     1.868180
 H    -6.962882     2.379190     1.250396
 H    -7.490274     0.793543     1.850409
 H    -6.547824     1.882493     2.899580
 C    -1.081262    -2.880357    -1.895838
 H    -0.073251    -2.427460    -1.854502
 C    -1.611218    -2.744069    -3.306974
 H    -1.592728    -1.692037    -3.618596
 H    -2.646726    -3.114411    -3.364662
 H    -0.992623    -3.324752    -4.007644
 C    -1.020759    -4.318138    -1.422192
 H    -0.622325    -4.381628    -0.400018
 H    -2.026306    -4.766886    -1.427425
 H    -0.372861    -4.914008    -2.082284
 C    -1.253560    -2.392997     1.943058
 H    -2.015269    -2.941942     1.361490
 C    -1.908922    -1.739686     3.145762
 H    -2.728193    -1.074068     2.845449
 H    -1.169616    -1.147693     3.705935
 H    -2.318519    -2.508544     3.818370
 C    -0.145961    -3.347519     2.344552
 H     0.308773    -3.819042     1.461555
 H     0.645766    -2.804980     2.883133
 H    -0.535197    -4.141445     2.999296
 C     4.194370     0.175530     0.431485
 H     4.456482     1.233647     0.378805
 C     2.530958    -1.568119     0.307037
 H     1.487252    -1.865090     0.186680
 C     5.175640    -0.788093     0.650235
 H     6.216110    -0.476149     0.778257
 C     3.516565    -2.521520     0.533335
 H     3.242458    -3.579718     0.573917
 C     4.856608    -2.149769     0.706875
 C     5.921535    -3.186626     0.910589
 H     5.550165    -4.034833     1.504312
 H     6.262195    -3.591413    -0.057180
 H     6.801788    -2.768195     1.419123
 C     1.834737     3.578655    -0.470740
 H     0.788054     3.544762    -0.112474
 C     1.841433     3.850416    -1.961460
 H     1.274900     3.073482    -2.494436
 H     2.874163     3.852505    -2.342318
 H     1.384974     4.828220    -2.177815
 C     2.593154     4.621469     0.324489
 H     2.569045     4.391991     1.399399
 H     3.645635     4.650368     0.002839
 H     2.157075     5.619812     0.171015
 C     1.668567     1.517017     2.663277
 H     2.665860     1.862605     2.336067
 C     1.817161     0.253331     3.487727
 H     2.319667    -0.535397     2.911756
 H     0.826113    -0.116948     3.788570
 H     2.408632     0.452230     4.394217
 C     0.982039     2.634525     3.422438
 H     0.878705     3.529107     2.791557
 H    -0.025408     2.316624     3.732709
 H     1.554010     2.905688     4.322439
