  94
scf done:    -3030.573394
 C     1.391847    -1.580171    -2.954060
 H     1.055646    -1.568478    -4.002781
 H     2.414243    -1.179799    -2.950294
 C     1.362664    -3.002662    -2.421894
 H     1.923926    -3.699905    -3.072807
 H     1.817757    -3.078200    -1.420779
 H     0.335248    -3.397124    -2.351430
Rh     0.074682    -0.502484    -1.729385
 C     1.288530    -0.999148     1.567070
 C     3.390452    -1.018201    -0.368960
 C     2.116123     1.467513     0.218713
 C    -1.666679     1.780724     0.386710
 C    -3.386778     0.150857    -1.254255
 C    -2.202241    -1.057981     0.934357
 P    -1.753666     0.132096    -0.399334
 P     1.717702    -0.301125    -0.080767
 C    -0.417895     0.423954    -3.232443
 O    -0.551273     1.173154    -4.104143
 C     1.357873    -0.309817     2.782507
 H     1.757058     0.703419     2.812548
 C     0.765113    -2.300287     1.568439
 H     0.660880    -2.835389     0.620016
 C     0.905726    -0.893787     3.964205
 H     0.932209    -0.356028     4.913827
 C     0.351156    -2.913046     2.745420
 H    -0.061547    -3.922183     2.751694
 C     0.409849    -2.190067     3.929262
 F    -0.037282    -2.747598     5.054106
 C     3.880326    -2.118096     0.333206
 H     3.279972    -2.546907     1.137720
 C     4.192818    -0.456629    -1.384340
 O     3.685303     0.621755    -2.006795
 C     4.349918     1.182748    -3.100798
 H     5.338357     1.585157    -2.816993
 H     3.717483     2.005914    -3.455673
 H     4.478092     0.449957    -3.916566
 C     5.125644    -2.673510     0.037518
 H     5.485070    -3.537281     0.600699
 C     5.440944    -1.009621    -1.685782
 H     6.057308    -0.579172    -2.475451
 C     5.900355    -2.117572    -0.974718
 H     6.876291    -2.543622    -1.220018
 C     1.425626     2.433777    -0.512398
 H     0.653120     2.085142    -1.202544
 C     3.169253     1.882689     1.059637
 O     3.852191     0.913198     1.699114
 C     5.003852     1.229034     2.425620
 H     5.751013     1.745290     1.798415
 H     5.423832     0.274851     2.768019
 H     4.779220     1.858755     3.304988
 C     1.717849     3.789711    -0.388126
 H     1.152502     4.524913    -0.963532
 C     3.463114     3.244251     1.195183
 H     4.267642     3.572122     1.854040
 C     2.731346     4.189323     0.476465
 H     2.970342     5.249393     0.593343
 C    -2.168978     2.892420    -0.301502
 H    -2.720787     2.750011    -1.234403
 C    -0.940160     1.994867     1.563380
 H    -0.494102     1.151401     2.090286
 C    -1.971269     4.181904     0.182291
 H    -2.356398     5.055335    -0.347265
 C    -0.746948     3.278142     2.066602
 H    -0.172589     3.452119     2.978048
 C    -1.263832     4.358187     1.365910
 F    -1.069237     5.593029     1.829986
 C    -3.492705    -0.365714    -2.544897
 H    -2.577788    -0.709517    -3.033233
 C    -4.565893     0.566445    -0.593873
 O    -4.426554     1.022442     0.662240
 C    -5.549716     1.433890     1.386557
 H    -6.055380     2.289559     0.906345
 H    -5.184803     1.745990     2.373210
 H    -6.275769     0.612661     1.516143
 C    -4.721501    -0.452798    -3.198687
 H    -4.775395    -0.856260    -4.211676
 C    -5.799277     0.490079    -1.249424
 H    -6.710975     0.819493    -0.750749
 C    -5.869452    -0.017443    -2.546586
 H    -6.840823    -0.072300    -3.044573
 C    -2.517954    -0.730272     2.251166
 H    -2.465457     0.311127     2.568755
 C    -2.323615    -2.404091     0.528779
 O    -2.000747    -2.659974    -0.755044
 C    -2.275732    -3.917266    -1.307355
 H    -1.662641    -4.710403    -0.845650
 H    -2.021761    -3.848948    -2.372242
 H    -3.343378    -4.176044    -1.204315
 C    -2.928804    -1.705676     3.160779
 H    -3.156693    -1.428200     4.191820
 C    -2.763002    -3.380052     1.425633
 H    -2.867752    -4.417527     1.107203
 C    -3.056486    -3.025025     2.742341
 H    -3.385904    -3.795059     3.444019
