  82
scf done:    -3990.898249
 C     1.945642    -2.867190    -1.318704
 H     1.922497    -3.393178    -2.279791
 H     2.929809    -2.398117    -1.196084
 C     1.506185    -3.701190    -0.136314
 H     1.287569    -4.748884    -0.389802
 H     2.214514    -3.669418     0.704590
 H     0.528868    -3.324712     0.308365
Rh     0.277806    -1.657048    -0.969258
 C     2.405240    -0.093295     1.461758
 O     3.041773     0.230470    -1.025976
 O     0.908913     1.422580    -0.225437
 C    -2.664448     0.367975    -1.103983
 O    -2.793490    -1.878326     0.259078
 O    -1.437382     0.056118     1.285407
 P    -1.620326    -0.767356    -0.160857
 P     1.639915    -0.086659    -0.185722
 C    -0.395365    -1.988715    -2.697006
 O    -0.735585    -2.014005    -3.794167
 C     1.667337    -0.686177     2.491762
 H     0.699732    -1.141665     2.263647
 C     3.644441     0.491526     1.747516
 H     4.222715     0.949551     0.943437
 C     2.145951    -0.682504     3.797975
 H     1.575879    -1.137775     4.609159
 C     4.135069     0.495079     3.048128
 H     5.098002     0.950909     3.283650
 C     3.379042    -0.088337     4.066314
Cl     3.983582    -0.078746     5.686378
 C     3.141486     0.156254    -2.388125
 C     4.338867    -0.328124    -2.915006
 H     5.128597    -0.638944    -2.228847
 C     2.110793     0.557170    -3.240410
 H     1.175688     0.932954    -2.826053
 C     4.510081    -0.415356    -4.292671
 H     5.437258    -0.792013    -4.727964
 C     2.274890     0.460324    -4.620284
 H     1.478030     0.753956    -5.305397
 C     3.471468    -0.024749    -5.130630
 F     3.630765    -0.114910    -6.450732
 C     1.512332     2.544312     0.287206
 C     2.343774     3.319034    -0.521150
 H     2.523287     3.015316    -1.554000
 C     1.272337     2.908244     1.613079
 H     0.630859     2.277554     2.230458
 C     2.936021     4.467916    -0.002726
 H     3.589803     5.095247    -0.611131
 C     1.861734     4.056065     2.134043
 H     1.693387     4.363193     3.167593
 C     2.688024     4.821073     1.318740
 F     3.256042     5.918726     1.815507
 C    -4.062022     0.332727    -1.058158
 H    -4.565126    -0.439816    -0.474472
 C    -2.017811     1.353968    -1.857255
 H    -0.925787     1.383341    -1.877332
 C    -4.807746     1.279586    -1.751344
 H    -5.898282     1.264816    -1.722903
 C    -2.755641     2.307448    -2.549645
 H    -2.262239     3.083998    -3.135829
 C    -4.148712     2.263705    -2.489199
Cl    -5.074057     3.446866    -3.344636
 C    -2.375541    -3.100168     0.725738
 C    -2.508177    -4.218605    -0.096396
 H    -2.938408    -4.094910    -1.091375
 C    -1.808408    -3.220282     1.995751
 H    -1.698771    -2.333205     2.621882
 C    -2.083598    -5.464825     0.354077
 H    -2.173861    -6.356278    -0.268932
 C    -1.377486    -4.465348     2.448693
 H    -0.928632    -4.588358     3.435762
 C    -1.520030    -5.572054     1.620897
 F    -1.106090    -6.762516     2.049618
 C    -2.417041     0.880914     1.785369
 C    -3.466842     0.357529     2.539399
 H    -3.520677    -0.717165     2.717347
 C    -2.344631     2.250481     1.528423
 H    -1.522587     2.633981     0.922857
 C    -4.447287     1.208479     3.044534
 H    -5.280185     0.827799     3.638222
 C    -3.321994     3.103325     2.030724
 H    -3.291060     4.177651     1.841545
 C    -4.363083     2.570562     2.782714
 F    -5.301923     3.384052     3.262588
