  96
scf done:    -2610.103215
 C     1.545307    -0.736558    -2.888240
 H     1.341315    -0.395693    -3.915325
 H     2.546121    -0.350955    -2.638087
 C     1.547630    -2.255038    -2.819750
 H     0.570479    -2.686506    -3.093848
 H     2.295721    -2.692891    -3.507936
 H     1.803471    -2.621254    -1.811316
Rh     0.032714    -0.202129    -1.515410
 C     2.971376    -0.924801     0.167231
 C     2.842885     1.770855    -0.855719
 C     1.400534     1.175614     1.529669
 C    -2.885497     1.068546     0.077102
 C    -3.022502    -1.680528    -0.687661
 C    -1.456652    -1.060751     1.613254
 P    -1.815952    -0.413100    -0.075046
 P     1.783819     0.444384    -0.120544
 C    -0.992010     0.332816    -2.951741
 O    -1.555263     0.863203    -3.807854
 C     2.584329    -2.037356     0.928271
 H     1.624637    -2.033320     1.445817
 C     4.189029    -0.989705    -0.518936
 H     4.514314    -0.146617    -1.132173
 C     3.401388    -3.156627     1.025125
 H     3.075044    -4.004893     1.634267
 C     4.995671    -2.122904    -0.430961
 H     5.939385    -2.148646    -0.982709
 C     4.624160    -3.224461     0.343991
 C     5.496479    -4.440258     0.450157
 H     6.357557    -4.379394    -0.229734
 H     5.885017    -4.561727     1.474426
 H     4.935703    -5.356292     0.207283
 C     2.476403     2.246939    -2.120540
 H     1.604403     1.797516    -2.602668
 C     3.940887     2.355345    -0.182205
 C     4.383395     1.970794     1.200379
 H     4.327736     0.889279     1.376412
 H     3.748444     2.450730     1.961876
 H     5.419209     2.294950     1.373723
 C     3.176596     3.274728    -2.742382
 H     2.865959     3.627192    -3.728423
 C     4.636929     3.383318    -0.833339
 H     5.492550     3.835688    -0.324248
 C     4.268840     3.843791    -2.093826
 H     4.836080     4.649988    -2.565741
 C     1.710332     0.516738     2.724392
 H     2.225263    -0.443277     2.697329
 C     0.763057     2.437842     1.579376
 C     0.420811     3.229973     0.350767
 H     0.023334     2.585621    -0.451140
 H     1.309628     3.737353    -0.054051
 H    -0.330979     3.996929     0.579404
 C     1.396806     1.071019     3.960925
 H     1.646736     0.528820     4.875477
 C     0.460721     2.976801     2.837193
 H    -0.028547     3.954339     2.879373
 C     0.766391     2.309866     4.019815
 H     0.514459     2.760232     4.982944
 C    -3.977397     1.205842    -0.794089
 H    -4.237722     0.390906    -1.472901
 C    -2.568322     2.150183     0.905024
 H    -1.696864     2.105614     1.556863
 C    -4.736844     2.369559    -0.805836
 H    -5.580270     2.446771    -1.497804
 C    -3.342783     3.307771     0.896596
 H    -3.074032     4.132260     1.563509
 C    -4.443372     3.441759     0.046208
 C    -5.287515     4.681774     0.043406
 H    -4.809955     5.496842     0.605125
 H    -5.473910     5.036552    -0.981739
 H    -6.271360     4.491553     0.503276
 C    -2.744911    -2.287001    -1.918647
 H    -1.842758    -1.981282    -2.454358
 C    -4.173928    -2.075014     0.034913
 C    -4.553646    -1.516273     1.375082
 H    -4.413047    -0.428453     1.427537
 H    -3.940026    -1.958197     2.175395
 H    -5.606992    -1.737426     1.596694
 C    -3.575751    -3.265177    -2.456738
 H    -3.331233    -3.719008    -3.419696
 C    -4.998397    -3.057371    -0.528787
 H    -5.894363    -3.361359     0.019515
 C    -4.712689    -3.651683    -1.754824
 H    -5.381745    -4.415465    -2.158928
 C    -1.747170    -0.353584     2.784427
 H    -2.261761     0.604454     2.727523
 C    -0.830892    -2.327034     1.708489
 C    -0.531503    -3.176159     0.507687
 H    -0.137861    -2.576504    -0.332043
 H    -1.439735    -3.675752     0.137623
 H     0.209651    -3.950713     0.747285
 C    -1.414883    -0.858099     4.037698
 H    -1.648659    -0.277422     4.932670
 C    -0.505499    -2.813981     2.980569
 H    -0.021565    -3.792091     3.055634
 C    -0.784827    -2.094060     4.138583
 H    -0.514664    -2.502248     5.115391
