 116
scf done:    -3368.489399
 C     1.288237     0.491417    -3.326384
 H     2.347724     0.330757    -3.090869
 H     1.087855    -0.102291    -4.232138
 C     0.977373     1.952566    -3.594801
 H     1.618909     2.383039    -4.389635
 H    -0.067378     2.091521    -3.918572
 H     1.126483     2.562555    -2.691300
Rh     0.059256     0.032622    -1.687288
 C    -1.788237     1.830140     0.510634
 C    -3.616818     0.050928    -0.679622
 C    -2.053109    -1.200669     1.159137
 C     1.402075    -1.604491     0.750468
 C     3.580924    -0.398999    -0.833727
 C     2.445624     1.239495     1.060248
 P     1.883033    -0.049099    -0.134283
 P    -1.813315     0.104183    -0.169077
 C    -0.594147    -1.158898    -2.865388
 O    -0.798072    -2.058418    -3.571789
 C    -1.108912     2.152410     1.689820
 H    -0.523657     1.387681     2.190795
 C    -2.385382     2.876196    -0.229739
 C    -2.883986     2.727674    -1.642622
 H    -3.960291     2.501333    -1.688821
 H    -2.351316     1.929370    -2.181966
 H    -2.718333     3.668866    -2.188779
 C    -1.183143     3.421123     2.252562
 H    -0.652530     3.631075     3.184765
 C    -2.473504     4.143709     0.365217
 H    -2.971471     4.943306    -0.191574
 C    -1.923071     4.415249     1.612890
 H    -2.019325     5.411305     2.052636
 C    -4.576873     0.444300     0.280192
 O    -4.105165     0.797262     1.485433
 C    -4.889057     1.553447     2.359105
 H    -4.214669     1.902582     3.151000
 H    -5.325139     2.431643     1.853388
 H    -5.700348     0.956110     2.811943
 C    -4.100329    -0.319731    -1.951276
 O    -3.200773    -0.644994    -2.888008
 C    -3.618884    -0.924476    -4.194090
 H    -2.708469    -1.137687    -4.765473
 H    -4.147811    -0.066882    -4.644663
 H    -4.276217    -1.810823    -4.232036
 C    -5.474680    -0.302685    -2.238496
 H    -5.833033    -0.591836    -3.224654
 C    -5.946796     0.478688    -0.006918
 H    -6.663198     0.785758     0.754017
 C    -6.382109     0.096121    -1.267364
 H    -7.449788     0.108996    -1.499632
 C    -2.267201    -2.477801     0.588283
 O    -2.181520    -2.535482    -0.750280
 C    -2.485749    -3.723374    -1.425268
 H    -2.343503    -3.511443    -2.490332
 H    -1.804048    -4.538908    -1.130340
 H    -3.528367    -4.034047    -1.238447
 C    -2.184867    -1.107459     2.559101
 O    -1.995937     0.093760     3.135703
 C    -2.204055     0.268395     4.502134
 H    -2.025469     1.333492     4.705058
 H    -1.504408    -0.329174     5.113839
 H    -3.237029     0.013610     4.798288
 C    -2.506678    -2.227889     3.337757
 H    -2.602240    -2.134152     4.418315
 C    -2.599872    -3.596325     1.360015
 H    -2.760772    -4.563889     0.888547
 C    -2.715982    -3.459168     2.733855
 H    -2.972246    -4.326351     3.347023
 C     1.229179    -2.668219    -0.156814
 H     1.395306    -2.478297    -1.219951
 C     1.127082    -1.826495     2.110841
 C     1.165120    -0.785096     3.192247
 H     1.032991     0.231939     2.810469
 H     2.122710    -0.806641     3.733639
 H     0.369898    -0.984616     3.923310
 C     0.874482    -3.940734     0.259103
 H     0.767339    -4.742828    -0.475619
 C     0.765082    -3.125188     2.510919
 H     0.541462    -3.294174     3.567761
 C     0.652457    -4.177514     1.616349
 H     0.358654    -5.168652     1.970442
 C     4.353469    -1.572480    -0.689723
 O     3.907207    -2.520585     0.150180
 C     4.483747    -3.791509     0.161072
 H     3.848640    -4.407379     0.811183
 H     4.507754    -4.242405    -0.846381
 H     5.511659    -3.777635     0.567228
 C     4.157507     0.653080    -1.577976
 O     3.467421     1.809026    -1.585211
 C     3.957632     2.899885    -2.307133
 H     3.229976     3.709895    -2.180993
 H     4.045505     2.671849    -3.382906
 H     4.937961     3.232692    -1.923689
 C     5.379440     0.511347    -2.246155
 H     5.791196     1.329971    -2.833856
 C     5.570859    -1.726722    -1.370598
 H     6.141802    -2.648702    -1.268947
 C     6.065850    -0.691405    -2.150388
 H     7.015087    -0.816526    -2.676751
 C     3.449668     0.964643     2.008119
 O     3.865539    -0.310732     2.046845
 C     4.929389    -0.684129     2.869278
 H     5.111064    -1.746703     2.665456
 H     5.843348    -0.109170     2.640721
 H     4.686416    -0.560269     3.940085
 C     2.039021     2.577090     0.891561
 O     1.187379     2.837750    -0.109773
 C     0.886247     4.166489    -0.432226
 H     0.227478     4.127734    -1.307861
 H     1.798788     4.735240    -0.684984
 H     0.353060     4.674853     0.384975
 C     2.543379     3.585019     1.729306
 H     2.206290     4.614551     1.620497
 C     3.962467     1.963347     2.842065
 H     4.722656     1.736900     3.588923
 C     3.486669     3.263162     2.696661
 H     3.874886     4.051091     3.347030
