  90
scf done:    -2729.915526
 C    -1.403798     2.236887    -2.083979
 H    -1.284572     2.427616    -3.162141
 H    -2.447746     1.910294    -1.958238
 C    -1.166295     3.514548    -1.294193
 H    -0.139812     3.896413    -1.417466
 H    -1.850722     4.323168    -1.613746
 H    -1.342091     3.373342    -0.214207
Rh     0.029415     0.884665    -1.317354
 C    -2.694367     1.102376     0.818892
 C    -3.086009    -0.698193    -1.409901
 C    -1.589326    -1.628088     0.813133
 C     1.996990    -1.589926     0.481178
 C     3.538166     0.426997    -0.958706
 C     2.107752     1.164073     1.397356
 P     1.911094     0.136744    -0.121472
 P    -1.790838    -0.112831    -0.222808
 C     0.940349     1.100838    -2.906430
 O     1.422075     1.098783    -3.952578
 C    -2.125076     1.578715     2.009461
 H    -1.192789     1.152578     2.382248
 C    -3.867339     1.714215     0.354935
 H    -4.329716     1.368225    -0.571670
 C    -2.715327     2.611811     2.730732
 H    -2.279119     2.977792     3.662002
 C    -4.460670     2.759124     1.058134
 H    -5.371781     3.240983     0.699260
 C    -3.878520     3.194059     2.241252
 F    -4.443664     4.188761     2.920703
 C    -2.801841    -0.551818    -2.773609
 H    -1.854255    -0.081084    -3.049552
 C    -4.284046    -1.337611    -1.013168
 C    -4.665586    -1.613942     0.412742
 H    -4.399386    -0.793999     1.090909
 H    -4.153222    -2.514881     0.785897
 H    -5.748125    -1.786915     0.490873
 C    -3.677801    -1.004852    -3.753505
 H    -3.427739    -0.878100    -4.809128
 C    -5.156495    -1.775420    -2.019612
 H    -6.089790    -2.261738    -1.722603
 C    -4.867938    -1.617191    -3.371424
 H    -5.574009    -1.976294    -4.124301
 C    -1.831781    -1.631420     2.191565
 H    -2.144776    -0.714837     2.691152
 C    -1.225141    -2.834954     0.172146
 C    -0.962270    -2.929408    -1.301496
 H    -0.450639    -2.030096    -1.682562
 H    -1.901956    -3.028040    -1.866848
 H    -0.341161    -3.807095    -1.523745
 C    -1.735788    -2.799023     2.942780
 H    -1.939467    -2.771884     4.015812
 C    -1.149263    -3.998713     0.946377
 H    -0.872759    -4.934886     0.454195
 C    -1.401954    -3.994403     2.314064
 H    -1.327331    -4.922661     2.885411
 C     2.119089    -2.635857    -0.443967
 H     2.174852    -2.414276    -1.512408
 C     1.844112    -1.909642     1.836491
 H     1.710509    -1.113166     2.571453
 C     2.157147    -3.962237    -0.025863
 H     2.259923    -4.783695    -0.737271
 C     1.860988    -3.232045     2.265784
 H     1.729884    -3.491425     3.317210
 C     2.027465    -4.241889     1.328141
 F     2.025215    -5.511540     1.732239
 C     4.420159    -0.624122    -1.238980
 H     4.181243    -1.635279    -0.909990
 C     3.894826     1.742600    -1.341658
 C     3.068209     2.953031    -1.020858
 H     3.227400     3.275044     0.020627
 H     1.990474     2.758104    -1.134927
 H     3.338324     3.790154    -1.679290
 C     5.621526    -0.411566    -1.907474
 H     6.285637    -1.254943    -2.110148
 C     5.107133     1.930210    -2.017789
 H     5.378364     2.944870    -2.321695
 C     5.965815     0.875569    -2.307341
 H     6.901793     1.061302    -2.839373
 C     1.091083     2.101218     1.615016
 H     0.266111     2.145041     0.896492
 C     3.225319     1.138139     2.263851
 C     4.419766     0.252416     2.061407
 H     5.080017     0.669178     1.284228
 H     4.148639    -0.758832     1.734002
 H     5.001231     0.171345     2.990395
 C     1.128073     2.991043     2.683568
 H     0.321523     3.715226     2.818941
 C     3.235073     2.031225     3.343990
 H     4.088242     2.011408     4.027641
 C     2.207666     2.946036     3.560569
 H     2.260289     3.631320     4.410159
