  84
scf done:    -4290.853770
 C    -1.174123     0.557621    -3.491969
 H    -0.673386     0.313782    -4.441804
 H    -2.164478     0.081028    -3.538514
 C    -1.313071     2.065293    -3.363439
 H    -1.681624     2.526976    -4.298384
 H    -2.031527     2.341883    -2.574983
 H    -0.352977     2.559869    -3.130367
Rh     0.001472    -0.087669    -1.871906
 C    -1.481963     1.787138     0.830144
 C    -3.434199     0.620657    -0.952908
 C    -2.032530    -1.072108     0.718711
 C     1.570030    -1.717732     0.934556
 C     3.367416    -0.643513    -1.019450
 C     2.089904     1.138395     0.692430
 P     1.698983    -0.364491    -0.287007
 P    -1.710228     0.394466    -0.339807
 C     0.733303    -1.310486    -3.035200
 O     1.069880    -2.196820    -3.689959
 C    -1.068977     1.604981     2.154518
 H    -0.971996     0.596687     2.559477
 C    -1.577818     3.100281     0.346893
 H    -1.856327     3.280716    -0.694086
 C    -0.781392     2.695983     2.969763
 H    -0.455349     2.521943     3.998888
 C    -1.312657     4.186521     1.173859
 H    -1.412521     5.199606     0.774204
 C    -0.904733     4.008062     2.501215
 C    -0.569115     5.177233     3.377180
 H    -1.064167     6.096006     3.032101
 H    -0.865676     4.996492     4.420734
 H     0.517692     5.362626     3.373286
 C    -4.298340     1.645139    -0.556887
 H    -3.962816     2.409355     0.146233
 C    -3.914055    -0.364213    -1.827783
 H    -3.256919    -1.185664    -2.125554
 C    -5.604726     1.702996    -1.038842
 H    -6.277986     2.504286    -0.730075
 C    -5.216394    -0.322071    -2.310186
 H    -5.586811    -1.090505    -2.990331
 C    -6.055426     0.720941    -1.917101
Cl    -7.676782     0.788561    -2.519655
 C    -2.884350    -1.011144     1.828944
 H    -3.334296    -0.060250     2.124911
 C    -1.516913    -2.309546     0.324847
 H    -0.869502    -2.350032    -0.556239
 C    -3.178005    -2.156211     2.560838
 H    -3.833260    -2.113578     3.432245
 C    -1.820110    -3.467582     1.034943
 H    -1.415214    -4.432284     0.727884
 C    -2.637671    -3.377959     2.157418
Cl    -3.004389    -4.808492     3.067863
 C     1.806768    -3.030720     0.506617
 H     2.165570    -3.217009    -0.509691
 C     1.087623    -1.519892     2.233206
 H     0.882347    -0.508843     2.588702
 C     1.590392    -4.105367     1.363390
 H     1.791984    -5.120410     1.009979
 C     0.864671    -2.600122     3.080907
 H     0.483232    -2.418944     4.089533
 C     1.112021    -3.913423     2.665256
 C     0.832160    -5.072930     3.573406
 H     1.172375    -4.870864     4.600055
 H    -0.251473    -5.269797     3.622121
 H     1.324447    -5.990496     3.221998
 C     3.637698    -0.102632    -2.280568
 H     2.834838     0.394341    -2.832673
 C     4.401349    -1.280219    -0.322634
 H     4.214921    -1.709652     0.664350
 C     4.907096    -0.196091    -2.843261
 H     5.115232     0.223168    -3.828745
 C     5.672719    -1.389028    -0.876641
 H     6.476989    -1.893485    -0.338754
 C     5.918614    -0.843902    -2.136781
Cl     7.498485    -0.976984    -2.830348
 C     2.885625     1.121747     1.844140
 H     3.249903     0.174483     2.247892
 C     1.666278     2.367926     0.180133
 H     1.050499     2.387040    -0.723957
 C     3.228528     2.305705     2.488080
 H     3.843234     2.296963     3.389517
 C     2.014836     3.561707     0.803866
 H     1.681525     4.519885     0.404222
 C     2.788687     3.519299     1.960222
Cl     3.221629     4.998697     2.755813
