  50
scf done:    -2526.985370
 C    -3.990880    -0.924414    -1.095719
 H    -4.659357    -0.208554    -1.602499
 H    -3.565277    -1.527469    -1.918115
 C    -4.810991    -1.820617    -0.174836
 H    -5.346902    -1.234462     0.588408
 H    -5.571716    -2.407184    -0.724575
 H    -4.185499    -2.542759     0.375301
Rh    -2.477128     0.150130    -0.038434
 C     0.669803    -1.648303    -0.235556
 C    -1.584218    -3.219691    -0.807896
 C    -0.753634    -1.253021    -2.705398
 C     0.734639     1.589224     0.319269
 C    -1.369343     3.174717     1.313218
 C    -0.528557     0.946237     2.836078
 P    -0.914798     1.403766     1.101755
 P    -1.027691    -1.471947    -0.909650
 C    -3.858532     1.291089     0.404492
 O    -4.741089     1.983015     0.660049
 C     1.827758    -1.444713    -0.991337
 H     1.762863    -1.182922    -2.048205
 C     0.805825    -1.975838     1.120247
 H    -0.087803    -2.139029     1.730424
 C     3.089803    -1.538237    -0.410071
 H     3.988471    -1.340970    -0.996729
 C     2.058983    -2.082652     1.713598
 H     2.161980    -2.330731     2.771380
 C     3.197109    -1.847408     0.942472
Cl     4.760593    -1.894823     1.686191
 H    -1.669272    -3.514795     0.246934
 H    -2.573968    -3.317598    -1.272930
 H    -0.864191    -3.880820    -1.311751
 H    -0.151991    -2.068298    -3.134651
 H    -1.738390    -1.227553    -3.191916
 H    -0.259814    -0.288827    -2.887649
 C     0.762873     1.875959    -1.052889
 H    -0.182522     1.981388    -1.595241
 C     1.947207     1.441081     0.997621
 H     1.963029     1.207516     2.063510
 C     1.967679     2.003754    -1.735374
 H     1.989651     2.221381    -2.804652
 C     3.162180     1.552926     0.325288
 H     4.106133     1.396854     0.850109
 C     3.163689     1.826111    -1.039399
Cl     4.669692     1.895343    -1.893906
 H    -1.541758     3.620476     0.323454
 H    -2.307230     3.239839     1.884410
 H    -0.577130     3.734278     1.832436
 H    -0.046689    -0.039761     2.868311
 H     0.114645     1.687987     3.333710
 H    -1.483644     0.878709     3.376398
