  78
scf done:    -3293.336307
 C    -1.344671    -0.157071    -3.566158
 H    -0.915383    -0.511847    -4.511873
 H    -2.279092    -0.700792    -3.384936
 C    -1.521117     1.350783    -3.529701
 H    -1.113411     1.859674    -4.415749
 H    -2.571770     1.659334    -3.403949
 H    -0.978243     1.811762    -2.657787
Rh    -0.003810    -0.118639    -1.974368
 C    -2.219645     0.747238     0.674439
 C    -3.260080    -1.368509    -0.980444
 C    -1.163652    -1.978759     0.717446
 C     2.209080    -0.594358     0.771762
 C     3.159774     1.209968    -1.236690
 C     1.186076     2.119397     0.542854
 P     1.600885     0.626806    -0.447431
 P    -1.670478    -0.622014    -0.416192
 C     1.224121    -1.079283    -2.954268
 O     1.947803    -1.820181    -3.465325
 C    -1.751812     0.927454     1.980476
 H    -1.141891     0.154759     2.450036
 C    -2.996167     1.767041     0.101886
 H    -3.352388     1.666754    -0.926965
 C    -2.040453     2.085585     2.697602
 H    -1.651702     2.228619     3.706757
 C    -3.310147     2.919239     0.812459
 H    -3.914658     3.707975     0.361511
 C    -2.817850     3.077191     2.107985
Cl    -3.134895     4.545520     2.969727
 C    -3.157582    -2.424996    -1.896396
 C    -4.521311    -1.012832    -0.493261
 C    -5.551335    -2.736838    -1.840322
 C    -5.660763    -1.691616    -0.926417
 C    -4.294290    -3.106267    -2.320076
 H    -2.171216    -2.711639    -2.272862
 H    -4.198175    -3.928542    -3.033050
 H    -6.445133    -3.267277    -2.177313
 H    -6.640639    -1.402597    -0.538391
 H    -4.622210    -0.208427     0.237984
 C    -0.117206    -2.815494     0.318765
 C    -1.871678    -2.277671     1.888829
 C    -0.446069    -4.190428     2.275839
 C    -1.501197    -3.367583     2.672730
 C     0.233306    -3.921349     1.090147
 H     0.417821    -2.577153    -0.604437
 H     1.055383    -4.565752     0.771803
 H    -0.153045    -5.043622     2.892095
 H    -2.050327    -3.585520     3.592072
 H    -2.725023    -1.663045     2.186346
 C     3.097461    -1.588005     0.337724
 H     3.505005    -1.551246    -0.676005
 C     1.689030    -0.680794     2.067737
 H     0.988956     0.075515     2.424562
 C     3.460267    -2.636912     1.175311
 H     4.146405    -3.413254     0.833034
 C     2.040564    -1.726700     2.914829
 H     1.617607    -1.800353     3.917475
 C     2.920335    -2.704454     2.459150
Cl     3.309855    -4.046474     3.481625
 C     3.111604     1.647966    -2.563340
 C     4.364052     1.305696    -0.528024
 C     5.445496     2.259142    -2.466499
 C     5.501475     1.822235    -1.142499
 C     4.248693     2.174112    -3.174479
 H     2.172875     1.558566    -3.117844
 H     4.199308     2.510644    -4.212687
 H     6.339570     2.663394    -2.947299
 H     6.438613     1.884060    -0.584008
 H     4.418627     0.963661     0.508292
 C     0.195104     2.971835     0.047641
 C     1.876006     2.485380     1.705942
 C     0.556604     4.503544     1.876376
 C     1.552633     3.663709     2.374555
 C    -0.112820     4.160498     0.704212
 H    -0.348509     2.689025    -0.856884
 H    -0.895940     4.811502     0.310445
 H     0.296545     5.423185     2.405225
 H     2.088867     3.931597     3.288207
 H     2.670761     1.847045     2.097961
