  56
scf done:    -1686.614244
 C    -3.676225    -1.024314    -0.984104
 H    -4.340366    -0.363206    -1.566185
 H    -3.250995    -1.713125    -1.736791
 C    -4.505048    -1.815321     0.021661
 H    -5.044112    -1.149142     0.713903
 H    -5.264453    -2.456885    -0.465415
 H    -3.885145    -2.475348     0.650735
Rh    -2.156851     0.155449    -0.057300
 C     0.977798    -1.669560    -0.002863
 C    -1.279777    -3.279076    -0.433523
 C    -0.402011    -1.555003    -2.530331
 C     1.063112     1.609860     0.061714
 C    -1.019090     3.309641     0.901481
 C    -0.144451     1.285600     2.667949
 P    -0.566244     1.524962     0.898195
 P    -0.703125    -1.558924    -0.725148
 C    -3.532571     1.327777     0.310040
 O    -4.413530     2.033806     0.533729
 C     2.154986    -1.587929    -0.750644
 H     2.116013    -1.451474    -1.832336
 C     1.083493    -1.835761     1.384027
 H     0.174714    -1.903132     1.990454
 C     3.397708    -1.657739    -0.125986
 H     4.304717    -1.579965    -0.732154
 C     2.327091    -1.910561     2.002107
 H     2.382858    -2.043262     3.086495
 C     3.509702    -1.813129     1.258414
 C     4.851437    -1.829867     1.928922
 H     5.169119    -0.806228     2.191521
 H     4.833049    -2.414262     2.860166
 H     5.626268    -2.252288     1.272880
 H    -1.390988    -3.446395     0.646508
 H    -2.259164    -3.425609    -0.907696
 H    -0.552991    -3.998638    -0.837945
 H     0.192154    -2.423987    -2.850945
 H    -1.379499    -1.572171    -3.031869
 H     0.112341    -0.626962    -2.814479
 C     1.060965     1.712596    -1.335819
 H     0.102944     1.727597    -1.866338
 C     2.292885     1.581400     0.723435
 H     2.334935     1.492721     1.810573
 C     2.254049     1.784687    -2.046927
 H     2.227797     1.869725    -3.137307
 C     3.484813     1.645882     0.005267
 H     4.436400     1.611596     0.543796
 C     3.490197     1.743720    -1.389250
 C     4.778268     1.759816    -2.158481
 H     5.590744     2.219876    -1.577545
 H     5.097785     0.733853    -2.409830
 H     4.678453     2.310112    -3.105242
 H    -1.214464     3.629652    -0.131677
 H    -1.943402     3.446670     1.482129
 H    -0.214874     3.927214     1.328562
 H     0.500139     2.088538     3.057061
 H    -1.087987     1.276024     3.232116
 H     0.351094     0.315981     2.807297
