 116
scf done:    -3368.446365
 C     1.294462    -1.085445     3.090584
 H     2.049910    -1.697316     2.568752
 H     1.851128    -0.290071     3.611096
 C     0.563267    -1.948515     4.105721
 H     1.261729    -2.457910     4.798194
 H    -0.139359    -1.360406     4.717963
 H    -0.029555    -2.740591     3.619683
Rh     0.020015    -0.332693     1.600001
 C    -2.242511    -1.521218    -0.899076
 C    -3.332458     0.227707     1.162385
 C    -1.841749     1.224285    -1.191622
 C     1.849073     1.488545    -0.763062
 C     3.510827     0.064477     1.106259
 C     2.072735    -1.363412    -1.041600
 P     1.887496    -0.039626     0.232083
 P    -1.826170    -0.043125     0.129479
 C    -0.805487     0.610860     2.924669
 O    -1.136629     1.427674     3.681078
 C    -1.351297    -1.860956    -1.920004
 H    -0.450225    -1.264857    -2.075966
 C    -3.393606    -2.301737    -0.748230
 H    -4.137071    -2.032610     0.001520
 C    -1.588420    -2.953160    -2.752589
 H    -0.864740    -3.189574    -3.536919
 C    -3.624565    -3.396448    -1.575811
 H    -4.536837    -3.985133    -1.438548
 C    -2.724844    -3.750878    -2.589838
 C    -2.966163    -4.952934    -3.455876
 H    -2.644509    -5.878814    -2.949530
 H    -4.033832    -5.071607    -3.694582
 H    -2.408915    -4.887018    -4.401525
 C    -4.060320     1.433876     1.214676
 O    -3.762559     2.378077     0.312153
 C    -4.117626     3.708270     0.536679
 H    -3.585847     4.298391    -0.220988
 H    -5.203591     3.876640     0.421529
 H    -3.805397     4.047183     1.539348
 C    -3.625733    -0.752230     2.134936
 O    -2.883869    -1.877173     2.078580
 C    -2.998644    -2.825591     3.099429
 H    -2.282013    -3.622802     2.868079
 H    -4.011495    -3.263647     3.140144
 H    -2.745493    -2.395200     4.082268
 C    -4.614834    -0.555949     3.103602
 H    -4.825755    -1.320637     3.849257
 C    -5.049346     1.636365     2.188336
 H    -5.606094     2.572367     2.214481
 C    -5.318391     0.642517     3.117568
 H    -6.089059     0.805765     3.874629
 C    -2.774640     1.296365    -2.164629
 O    -3.848560     0.473676    -2.125068
 C    -4.208567    -0.213332    -3.297188
 H    -5.063498    -0.849894    -3.037113
 H    -4.513224     0.467593    -4.111093
 H    -3.385615    -0.857031    -3.650329
 C    -0.740853     2.242260    -1.089862
 O    -0.886434     2.777611     0.188967
 C     0.123270     3.568404     0.754575
 H    -0.346235     4.129951     1.575301
 H     0.550094     4.292498     0.037178
 H     0.934427     2.948147     1.155731
 C    -0.689839     3.302161    -2.234657
 H    -0.575374     4.311663    -1.805541
 C    -2.754774     2.344524    -3.186703
 H    -3.578363     2.371750    -3.903458
 C    -1.810595     3.297097    -3.208677
 H    -1.860676     4.102586    -3.948570
 C     2.835157     2.402960    -0.805305
 H     3.738503     2.256790    -0.209164
 C     0.634802     1.657840    -1.616881
 H     0.401721     0.682858    -2.072792
 C     2.780444     3.561768    -1.685697
 H     3.594349     4.290960    -1.619337
 C     0.687404     2.755278    -2.712066
 H     0.635898     2.355321    -3.739926
 C     1.813018     3.740486    -2.608374
 C     1.788298     4.888590    -3.562793
 H     1.798613     4.529746    -4.607298
 H     0.866621     5.486481    -3.452716
 H     2.646848     5.559876    -3.419165
 C     4.605153    -0.810939     0.940132
 O     4.507220    -1.747962    -0.018178
 C     5.529004    -2.678514    -0.212243
 H     5.194978    -3.329007    -1.031397
 H     6.479247    -2.195439    -0.502056
 H     5.703303    -3.293781     0.687968
 C     3.600311     1.022023     2.139383
 O     2.544230     1.842052     2.278881
 C     2.332341     2.507285     3.495753
 H     1.297652     2.870793     3.474257
 H     3.021194     3.360993     3.620476
 H     2.443473     1.819109     4.349759
 C     4.727812     1.118856     2.963131
 H     4.773556     1.870147     3.750544
 C     5.739106    -0.714114     1.758775
 H     6.579396    -1.392481     1.618718
 C     5.788923     0.247947     2.759779
 H     6.674924     0.317531     3.395387
 C     1.449341    -2.599016    -0.780575
 O     0.766145    -2.701487     0.373879
 C    -0.006459    -3.844284     0.634049
 H    -0.510166    -3.648263     1.586197
 H    -0.765366    -4.002738    -0.149390
 H     0.625894    -4.742971     0.734476
 C     2.796976    -1.230117    -2.243019
 O     3.440048    -0.067355    -2.421779
 C     4.085630     0.205752    -3.628821
 H     4.450545     1.238421    -3.554340
 H     3.397140     0.132326    -4.489168
 H     4.943161    -0.468906    -3.800963
 C     2.859282    -2.275190    -3.172961
 H     3.412571    -2.161720    -4.104574
 C     1.538794    -3.663010    -1.689427
 H     1.048371    -4.612349    -1.482303
 C     2.234846    -3.483551    -2.876680
 H     2.294447    -4.307283    -3.592675
