  94
scf done:    -3751.131696
 C     1.866470    -2.189085    -2.275631
 H     1.840461    -2.311360    -3.369445
 H     2.837772    -1.723088    -2.049763
 C     1.740445    -3.537155    -1.583614
 H     0.805803    -4.053004    -1.860817
 H     2.574234    -4.217796    -1.843404
 H     1.749705    -3.438242    -0.484548
Rh     0.194094    -1.148036    -1.514470
 C     1.256995     1.244275     0.992602
 C     2.849257    -1.167335     0.767360
 C     2.847244     1.014769    -1.264446
 C    -2.560748     1.020796    -0.876345
 C    -3.136567    -1.830359    -0.620662
 C    -1.635433    -0.528120     1.420699
 P    -1.787475    -0.578208    -0.406057
 P     1.776669    -0.048951    -0.220053
 C    -0.484579    -1.209927    -3.222962
 O    -0.782949    -1.066053    -4.330441
 C     0.470129     2.276123     0.468644
 H     0.221680     2.278823    -0.593826
 C     1.593017     1.283997     2.347210
 H     2.239542     0.517592     2.775821
 C    -0.009976     3.302109     1.274909
 H    -0.638829     4.091200     0.858978
 C     1.114875     2.299659     3.170540
 H     1.360563     2.316934     4.233571
 C     0.302879     3.294675     2.632714
Cl    -0.351301     4.519697     3.673384
 C     2.250267    -1.770701     1.876623
 H     1.224725    -1.497716     2.133101
 C     4.159172    -1.559990     0.422184
 O     4.697069    -1.007680    -0.677204
 C     5.989221    -1.351934    -1.082238
 H     6.740106    -1.103830    -0.311260
 H     6.194846    -0.761244    -1.983903
 H     6.069199    -2.425082    -1.328668
 C     2.923591    -2.701815     2.664917
 H     2.431706    -3.138215     3.537058
 C     4.836097    -2.502338     1.206969
 H     5.849032    -2.806273     0.942806
 C     4.222601    -3.064223     2.324109
 H     4.768748    -3.796946     2.923044
 C     2.564375     1.148501    -2.620819
 H     1.749277     0.543844    -3.029528
 C     3.896669     1.773197    -0.705040
 O     4.134989     1.585388     0.604829
 C     5.097151     2.362717     1.255432
 H     6.110731     2.178548     0.857278
 H     5.071489     2.069339     2.312547
 H     4.872249     3.440483     1.177821
 C     3.297060     2.019455    -3.429648
 H     3.060040     2.109833    -4.491534
 C     4.630153     2.648855    -1.508770
 H     5.442213     3.241167    -1.086118
 C     4.325371     2.765918    -2.866890
 H     4.907011     3.455129    -3.484452
 C    -3.738662     1.532903    -0.314526
 H    -4.259240     0.961889     0.454466
 C    -1.927359     1.752589    -1.888208
 H    -1.016672     1.344994    -2.337825
 C    -4.251709     2.756999    -0.731232
 H    -5.165378     3.159710    -0.290870
 C    -2.431757     2.977047    -2.317583
 H    -1.932639     3.543843    -3.105064
 C    -3.590565     3.476224    -1.727289
Cl    -4.224410     5.004030    -2.240004
 C    -3.003727    -2.768114    -1.646149
 H    -2.128143    -2.697750    -2.294168
 C    -4.241058    -1.956061     0.250970
 O    -4.362614    -1.045208     1.239482
 C    -5.192146    -1.304554     2.337094
 H    -6.262363    -1.255535     2.070343
 H    -4.971183    -0.527099     3.080101
 H    -4.975835    -2.292167     2.778666
 C    -3.927541    -3.795348    -1.832764
 H    -3.792481    -4.508491    -2.648277
 C    -5.160135    -2.996130     0.081054
 H    -6.009970    -3.090837     0.757683
 C    -5.004573    -3.907381    -0.961891
 H    -5.736099    -4.709862    -1.085235
 C    -1.858428     0.590310     2.217516
 H    -2.157941     1.529207     1.750892
 C    -1.234329    -1.731288     2.036108
 O    -0.992187    -2.755613     1.194060
 C    -0.673043    -4.023989     1.693058
 H     0.280066    -4.015478     2.248520
 H    -0.565119    -4.678715     0.819810
 H    -1.474524    -4.413895     2.344212
 C    -1.703571     0.530176     3.603310
 H    -1.864691     1.427159     4.204791
 C    -1.097078    -1.805863     3.424372
 H    -0.798241    -2.739827     3.901854
 C    -1.332848    -0.669262     4.201455
 H    -1.214629    -0.730208     5.286043
