  90
scf done:    -1931.925114
 C     0.900238    -2.897482     1.137606
 H     1.833176    -3.282047     0.688283
 H     1.191575    -2.456652     2.107197
 C    -0.061367    -4.047584     1.407932
 H    -0.284991    -4.623695     0.495718
 H     0.337949    -4.761861     2.153442
 H    -1.028520    -3.688798     1.799243
Rh     0.035984    -1.361460    -0.034069
 C     1.041108     0.977637     2.534103
 C     3.160493    -0.579167     1.344830
 C     1.963391     1.573946    -0.134133
 C    -0.832505     0.971475    -2.607914
 C    -2.982888    -0.558360    -1.433487
 C    -1.845984     1.633621     0.091229
 P    -1.362495     0.214575    -1.005367
 P     1.512627     0.145677     0.949109
 C    -0.402185    -2.632501    -1.296876
 O    -0.533620    -3.349679    -2.192540
 H     0.302202     1.749977     2.262879
 C     0.446504     0.014877     3.551334
 H     1.176597    -0.745383     3.867917
 H    -0.415874    -0.522680     3.126776
 H     1.915250     1.505515     2.950325
 H     0.112386     0.548674     4.454236
 H     3.778549     0.169077     1.868972
 H     2.976800    -1.398518     2.056846
 C     3.867705    -1.120561     0.109369
 H     3.144515    -1.708967    -0.482147
 H     4.181446    -0.283391    -0.539716
 C     5.079834    -1.979137     0.439602
 H     4.756923    -2.827464     1.069900
 H     5.789926    -1.398398     1.057126
 C     5.798004    -2.511645    -0.792343
 H     5.080172    -3.083741    -1.406002
 H     6.116471    -1.661409    -1.421762
 C     6.999367    -3.382622    -0.462647
 H     7.496116    -3.752725    -1.372364
 H     6.703349    -4.260040     0.134604
 H     7.748991    -2.825698     0.122713
 H     2.219060     1.134406    -1.112783
 H     1.030095     2.136941    -0.297428
 C     3.064467     2.513234     0.335579
 H     2.812320     2.927741     1.326973
 H     4.004376     1.951984     0.472005
 C     3.309604     3.660234    -0.636317
 H     2.371630     4.228994    -0.774604
 H     3.555841     3.246759    -1.631379
 C     4.415156     4.609483    -0.195810
 H     4.166557     5.016167     0.800602
 H     5.349124     4.036227    -0.058413
 C     4.654137     5.751559    -1.170044
 H     5.457969     6.419204    -0.824970
 H     3.746581     6.363120    -1.299304
 H     4.939540     5.374338    -2.165256
 H    -0.659156     0.097534    -3.258769
 C    -1.722707     1.994250    -3.296002
 H    -1.801556     2.924445    -2.713907
 H    -2.741925     1.613547    -3.461110
 H     0.168723     1.390110    -2.419611
 H    -1.311233     2.263128    -4.281601
 H    -3.687111     0.191551    -1.829927
 H    -2.764721    -1.261038    -2.255949
 C    -3.589658    -1.313866    -0.258191
 H    -2.822842    -1.995086     0.152521
 H    -3.830918    -0.609045     0.557903
 C    -4.836910    -2.104463    -0.624512
 H    -4.589316    -2.812016    -1.436530
 H    -5.601012    -1.423002    -1.042424
 C    -5.429222    -2.871895     0.549267
 H    -4.657836    -3.545488     0.962160
 H    -5.669895    -2.162150     1.360927
 C    -6.668630    -3.673006     0.185286
 H    -7.071537    -4.216430     1.053405
 H    -6.447153    -4.415728    -0.597962
 H    -7.468902    -3.019966    -0.199209
 H    -1.792543     1.232727     1.117434
 H    -1.026767     2.370154     0.020312
 C    -3.189310     2.322510    -0.113870
 H    -3.285701     2.687103    -1.148695
 H    -4.004194     1.592466     0.023818
 C    -3.400010     3.484280     0.848388
 H    -2.592476     4.226573     0.708803
 H    -3.293607     3.121259     1.887120
 C    -4.749386     4.170738     0.688552
 H    -4.852565     4.526276    -0.352083
 H    -5.551965     3.425090     0.828711
 C    -4.954926     5.330874     1.648948
 H    -5.937894     5.805418     1.509102
 H    -4.187164     6.108469     1.506614
 H    -4.893053     4.997238     2.697327
