  88
scf done:    -3150.521943
 C     1.915656     1.069040    -2.870479
 H     2.199312     2.067329    -3.224531
 H     2.829598     0.565609    -2.529358
 C     1.137278     0.255565    -3.889533
 H     0.936093     0.808267    -4.819652
 H     1.627241    -0.698443    -4.139718
 H     0.126900    -0.042514    -3.502756
Rh     0.302066     1.070869    -1.524206
 C     1.767493    -2.123642    -0.835513
 O     3.116039     0.028961    -0.096308
 O     0.997981    -0.470936     1.246304
 C    -2.510151     2.333806     0.233700
 O    -2.965911     0.424439    -1.506164
 O    -1.809674    -0.281222     0.681306
 P    -1.701951     0.877034    -0.496936
 P     1.522593    -0.385020    -0.331773
 C     0.187529     2.939231    -1.677356
 O     0.229491     4.084355    -1.606152
 C     0.700099    -2.591140    -1.618274
 H    -0.125009    -1.909465    -1.846592
 C     2.851096    -2.985814    -0.537613
 C     4.061067    -2.595513     0.259710
 H     3.797031    -2.109685     1.207386
 H     4.681966    -1.877132    -0.294188
 H     4.668541    -3.483258     0.481580
 C     0.668136    -3.892656    -2.108262
 H    -0.168138    -4.225495    -2.725462
 C     2.790307    -4.291985    -1.040224
 H     3.616571    -4.971761    -0.815986
 C     1.725083    -4.747146    -1.812719
 H     1.726884    -5.773280    -2.188478
 C     3.557188     1.315580     0.037473
 C     4.781660     1.635925    -0.549331
 H     5.320643     0.864330    -1.101763
 C     2.841996     2.286363     0.741168
 H     1.885112     2.035567     1.196512
 C     5.295273     2.923813    -0.435005
 H     6.250250     3.197524    -0.886780
 C     3.348091     3.579572     0.847988
 H     2.799803     4.357846     1.381326
 C     4.567983     3.884000     0.259190
 F     5.054607     5.120902     0.363602
 C     1.507865    -1.307321     2.198204
 C     2.462554    -0.826518     3.095755
 H     2.809483     0.204251     3.003271
 C     1.045210    -2.621217     2.291256
 H     0.296058    -2.973375     1.580512
 C     2.966616    -1.665344     4.085931
 H     3.714845    -1.317877     4.800410
 C     1.551917    -3.463792     3.276920
 H     1.213991    -4.497288     3.370271
 C     2.508461    -2.976078     4.159955
 F     2.993820    -3.782235     5.103152
 C    -3.585786     2.939685    -0.428504
 H    -3.983477     2.477347    -1.333091
 C    -1.968217     2.916902     1.396696
 C    -0.830274     2.295436     2.150441
 H    -0.230131     3.065041     2.656397
 H    -0.170106     1.706262     1.499034
 H    -1.208446     1.606078     2.922698
 C    -4.143907     4.115509     0.060393
 H    -4.982986     4.579620    -0.462587
 C    -2.547838     4.100210     1.867502
 H    -2.138237     4.562948     2.769436
 C    -3.621871     4.696034     1.214434
 H    -4.049398     5.622353     1.605545
 C    -2.803606    -0.682474    -2.298245
 C    -3.010531    -1.955911    -1.762960
 H    -3.303453    -2.058426    -0.717204
 C    -2.438863    -0.528219    -3.635253
 H    -2.290972     0.477621    -4.031569
 C    -2.834158    -3.079584    -2.563853
 H    -2.984626    -4.086281    -2.170293
 C    -2.254694    -1.651610    -4.438781
 H    -1.953410    -1.561669    -5.483732
 C    -2.445931    -2.912232    -3.887806
 F    -2.235092    -3.994097    -4.639956
 C    -2.780359    -0.449274     1.628763
 C    -2.363773    -0.956847     2.862197
 H    -1.303865    -1.170458     3.010255
 C    -4.130276    -0.172668     1.399867
 H    -4.453095     0.211184     0.432340
 C    -3.292545    -1.182142     3.872402
 H    -2.990450    -1.578206     4.843518
 C    -5.059411    -0.391620     2.415304
 H    -6.119122    -0.178934     2.264226
 C    -4.632150    -0.891556     3.637977
 F    -5.524084    -1.101898     4.606083
