 108
scf done:    -2467.450917
 C    -1.134282     1.100361    -3.112355
 H    -1.343961     0.408719    -3.945318
 H    -2.121472     1.422919    -2.747102
 C    -0.368213     2.312361    -3.629043
 H     0.574169     2.024007    -4.121431
 H    -0.955949     2.893629    -4.365210
 H    -0.097419     3.011397    -2.818660
Rh     0.013710     0.232096    -1.562438
 C    -1.913997     1.237225     1.368040
 C    -3.501383     0.318620    -0.850139
 C    -1.792323    -1.607650     0.692200
 C     1.901559    -1.736885     0.886717
 C     3.382706    -0.138322    -0.945512
 C     1.847179     1.293672     1.195225
 P     1.751629    -0.117952    -0.011056
 P    -1.816336     0.088773    -0.078594
 C     0.934263    -0.544655    -2.940360
 O     1.403754    -1.187411    -3.779213
 C    -1.793276     0.774835     2.686449
 H    -1.667823    -0.290046     2.878613
 C    -2.071413     2.626538     1.153166
 C    -2.164315     3.229093    -0.218287
 H    -3.209379     3.278363    -0.565873
 H    -1.599406     2.646026    -0.961227
 H    -1.772385     4.255898    -0.218428
 C    -1.844696     1.638985     3.777248
 H    -1.746259     1.241114     4.790016
 C    -2.142908     3.477175     2.262926
 H    -2.267814     4.549758     2.090139
 C    -2.034620     3.000978     3.565609
 H    -2.087597     3.693013     4.409226
 H    -3.359708     1.250711    -1.421208
 C    -4.699047     0.559024     0.069870
 H    -4.473329     1.345787     0.806172
 H    -4.927063    -0.349607     0.648080
 C    -5.923434     0.945379    -0.757882
 H    -6.793100     1.095543    -0.097395
 H    -5.734817     1.918619    -1.247403
 C    -6.237858    -0.098805    -1.824282
 H    -7.100527     0.220462    -2.431504
 H    -6.539692    -1.039385    -1.327947
 C    -5.030172    -0.371944    -2.714589
 H    -4.792147     0.532699    -3.302539
 H    -5.261018    -1.164261    -3.445011
 C    -3.807266    -0.760345    -1.889996
 H    -4.008704    -1.718537    -1.381875
 H    -2.930064    -0.919640    -2.536198
 H    -0.948217    -1.531170     1.403334
 C    -1.388182    -2.692076    -0.313610
 H    -0.488464    -2.366309    -0.858176
 H    -2.179440    -2.809648    -1.071282
 C    -1.156184    -4.021904     0.393808
 H    -0.883425    -4.794335    -0.343311
 H    -0.289672    -3.919748     1.066952
 C    -2.368744    -4.459922     1.205909
 H    -2.154338    -5.398106     1.743416
 H    -3.211134    -4.677183     0.523923
 C    -2.792932    -3.370551     2.183440
 H    -1.998552    -3.228258     2.939442
 H    -3.698135    -3.672906     2.735195
 C    -3.040584    -2.049346     1.460759
 H    -3.866565    -2.191063     0.744558
 H    -3.378798    -1.279144     2.169300
 C     2.175488    -2.797322     0.000710
 H     2.225766    -2.595953    -1.072101
 C     1.747699    -2.039949     2.258970
 C     1.352532    -1.052245     3.321120
 H     0.468648    -0.467698     3.037630
 H     2.153452    -0.334907     3.548468
 H     1.112834    -1.579556     4.254444
 C     2.384501    -4.098775     0.435438
 H     2.606219    -4.885242    -0.289209
 C     1.956915    -3.365503     2.675861
 H     1.846289    -3.593539     3.739544
 C     2.291942    -4.385356     1.794812
 H     2.452284    -5.400501     2.164699
 H     3.175379    -0.903208    -1.713870
 C     4.650587    -0.590704    -0.218550
 H     4.470347    -1.522565     0.337747
 H     4.957599     0.163815     0.521406
 C     5.783170    -0.789350    -1.224253
 H     6.701821    -1.100157    -0.700273
 H     5.517934    -1.619121    -1.904293
 C     6.038521     0.471602    -2.043399
 H     6.828732     0.291484    -2.790366
 H     6.420579     1.263727    -1.373446
 C     4.765933     0.966710    -2.722411
 H     4.443552     0.235134    -3.484790
 H     4.957638     1.910286    -3.258720
 C     3.634615     1.158419    -1.716993
 H     3.912712     1.961653    -1.013328
 H     2.711293     1.481016    -2.225719
 H     1.048816     1.069140     1.920876
 C     1.428585     2.604169     0.515671
 H     0.479689     2.454809    -0.023619
 H     2.170523     2.888586    -0.246895
 C     1.299246     3.723093     1.543492
 H     1.018351     4.663212     1.040678
 H     0.472802     3.478828     2.230829
 C     2.579968     3.909623     2.348542
 H     2.441656     4.690635     3.113818
 H     3.385658     4.266936     1.681553
 C     3.017722     2.600479     2.995717
 H     2.268203     2.295203     3.748849
 H     3.968843     2.734710     3.536427
 C     3.160102     1.497860     1.950823
 H     3.940491     1.797484     1.232659
 H     3.513297     0.561604     2.408742
