  94
scf done:    -2832.180383
 C    -1.663742     0.153298    -2.954349
 H    -1.550956    -0.420963    -3.887084
 H    -2.663540    -0.092459    -2.566382
 C    -1.562449     1.644115    -3.237036
 H    -0.586384     1.916834    -3.672765
 H    -2.336983     1.984956    -3.951191
 H    -1.700626     2.247168    -2.322681
Rh    -0.082369    -0.185314    -1.595927
 C    -2.856561     1.256040     0.078435
 C    -2.876967    -1.669460    -0.258657
 C    -1.420715    -0.616145     1.778791
 C     2.235525    -0.833985     1.178159
 C     3.453489    -0.069202    -1.273544
 C     2.106395     1.918734    -0.010182
 P     1.860023     0.125208    -0.340254
 P    -1.758120    -0.220828     0.007027
 C     0.726048    -1.246446    -2.859720
 O     1.135139    -2.094532    -3.529927
 C    -2.312837     2.418095     0.663533
 O    -1.056523     2.291634     1.124041
 C    -0.481621     3.318689     1.883886
 H     0.547916     3.003398     2.082716
 H    -0.452147     4.270813     1.331439
 H    -1.027572     3.461147     2.833471
 C    -4.128674     1.356943    -0.521892
 O    -4.584996     0.272974    -1.165896
 C    -5.860523     0.266023    -1.737881
 H    -6.001056    -0.739515    -2.153825
 H    -5.948960     1.008947    -2.549481
 H    -6.646620     0.456681    -0.986807
 C    -4.861941     2.550021    -0.449353
 H    -5.850603     2.618036    -0.900898
 C    -3.043340     3.608557     0.748615
 H    -2.620854     4.490068     1.228255
 C    -4.316514     3.654829     0.192322
 H    -4.893586     4.580910     0.248144
 C    -2.622370    -2.564835    -1.296404
 C    -3.928035    -1.930081     0.629818
 C    -4.479348    -3.940864    -0.589008
 C    -4.729670    -3.052745     0.460819
 C    -3.422073    -3.697824    -1.460992
 H    -1.787499    -2.359594    -1.971566
 H    -3.211967    -4.392794    -2.277837
 H    -5.105765    -4.827335    -0.717506
 H    -5.551238    -3.243476     1.156067
 H    -4.119330    -1.245786     1.460620
 C    -1.912342     0.090963     2.878243
 C    -0.718212    -1.808189     1.997241
 C    -0.998465    -1.569469     4.382360
 C    -0.515494    -2.286036     3.287524
 C    -1.695276    -0.380616     4.173636
 H    -2.496706     1.000421     2.728816
 H    -2.092321     0.179164     5.024740
 H    -0.839435    -1.943231     5.396975
 H     0.029855    -3.219986     3.436202
 H    -0.348262    -2.375341     1.138659
 C     2.208401    -0.391582     2.511830
 O     1.795031     0.868071     2.739587
 C     1.742700     1.340858     4.057294
 H     1.397409     2.380271     4.001204
 H     1.028691     0.759423     4.664013
 H     2.735554     1.324768     4.539001
 C     2.502339    -2.201198     0.941628
 O     2.377346    -2.581003    -0.339150
 C     2.720991    -3.877367    -0.744024
 H     2.541914    -3.912458    -1.825415
 H     2.092417    -4.636533    -0.248054
 H     3.783816    -4.092759    -0.540507
 C     2.867289    -3.069012     1.974144
 H     3.098409    -4.114035     1.771558
 C     2.591183    -1.252113     3.552179
 H     2.595437    -0.905004     4.583668
 C     2.927864    -2.569359     3.271503
 H     3.220240    -3.232115     4.089481
 C     3.474188     0.346414    -2.608299
 C     4.643315    -0.508061    -0.684259
 C     5.835214    -0.142449    -2.756052
 C     5.824541    -0.549865    -1.423067
 C     4.655942     0.310910    -3.344767
 H     2.549545     0.699452    -3.073128
 H     4.651949     0.635875    -4.388020
 H     6.761600    -0.176803    -3.334566
 H     6.744626    -0.903326    -0.950406
 H     4.651304    -0.824117     0.361583
 C     1.307418     2.797987    -0.746135
 C     3.151328     2.433344     0.766054
 C     2.555620     4.681230     0.103194
 C     3.363149     3.806891     0.835353
 C     1.534601     4.173572    -0.696242
 H     0.502519     2.392177    -1.367096
 H     0.905456     4.847221    -1.283361
 H     2.734463     5.758467     0.148640
 H     4.177175     4.199869     1.449774
 H     3.809963     1.754198     1.311260
