 118
scf done:    -2846.673987
 C    -1.304756     1.306676    -3.104888
 H    -1.407903     0.725734    -4.037201
 H    -2.319280     1.402967    -2.693494
 C    -0.752483     2.691759    -3.417343
 H     0.208974     2.641660    -3.953384
 H    -1.441286     3.288171    -4.048763
 H    -0.569211     3.278648    -2.500676
Rh    -0.023039     0.431593    -1.677103
 C    -2.180290     0.915046     1.232186
 C    -3.489991    -0.220002    -1.047726
 C    -1.478889    -1.888018     0.411303
 C     2.201556    -1.413387     0.659285
 C     3.359521     0.621188    -0.991482
 C     1.498282     1.472144     1.207180
 P     1.743034     0.204392    -0.135163
 P    -1.804897    -0.170352    -0.234276
 C     1.013928     0.014325    -3.115932
 O     1.590888    -0.405015    -4.029468
 C    -2.007761     0.615368     2.598267
 O    -1.433159    -0.565118     2.905262
 C    -1.349215    -0.977108     4.236605
 H    -0.884388    -1.971114     4.222523
 H    -0.723399    -0.298385     4.840416
 H    -2.345855    -1.054955     4.705133
 C    -2.665744     2.207937     0.927288
 O    -2.702432     2.518983    -0.382237
 C    -3.122308     3.789362    -0.796923
 H    -3.021363     3.803198    -1.888736
 H    -2.487638     4.583644    -0.368437
 H    -4.174852     3.979304    -0.524574
 C    -3.078361     3.104871     1.917878
 H    -3.474876     4.083533     1.652795
 C    -2.406818     1.512560     3.600823
 H    -2.289018     1.254240     4.651862
 C    -2.956358     2.738627     3.251676
 H    -3.274782     3.430370     4.034722
 H    -3.519789     0.771300    -1.522933
 C    -4.736414    -0.296808    -0.165089
 H    -4.684818     0.443324     0.647987
 H    -4.811469    -1.283558     0.317361
 C    -5.985481    -0.060125    -1.011731
 H    -6.889141    -0.135169    -0.384314
 H    -5.963163     0.973686    -1.402803
 C    -6.067662    -1.036499    -2.180975
 H    -6.954914    -0.822416    -2.799387
 H    -6.206171    -2.059219    -1.784395
 C    -4.802294    -1.001382    -3.031917
 H    -4.716499    -0.016681    -3.525462
 H    -4.861208    -1.749347    -3.839538
 C    -3.554132    -1.237177    -2.186716
 H    -3.588605    -2.261408    -1.777581
 H    -2.644064    -1.166636    -2.803347
 H    -0.682451    -1.716166     1.152208
 C    -0.879985    -2.794223    -0.670912
 H    -0.041584    -2.274001    -1.160338
 H    -1.622759    -2.989114    -1.460639
 C    -0.434571    -4.119759    -0.060419
 H    -0.014370    -4.773377    -0.843199
 H     0.383707    -3.927706     0.652769
 C    -1.567931    -4.827120     0.672203
 H    -1.205669    -5.761402     1.132310
 H    -2.351116    -5.118669    -0.051426
 C    -2.181860    -3.913761     1.725896
 H    -1.428250    -3.704805     2.507186
 H    -3.027184    -4.412321     2.228896
 C    -2.640184    -2.596413     1.108025
 H    -3.424701    -2.818504     0.365871
 H    -3.097310    -1.950412     1.869982
 C     2.206688    -1.738150     2.030783
 O     1.795361    -0.793215     2.906412
 C     2.130720    -0.918154     4.258853
 H     1.851186     0.029432     4.737798
 H     1.583181    -1.738663     4.753621
 H     3.213571    -1.082442     4.395143
 C     2.581560    -2.443384    -0.236040
 O     2.512880    -2.136175    -1.543246
 C     2.766300    -3.111177    -2.518905
 H     2.573367    -2.627084    -3.483459
 H     2.092831    -3.977237    -2.403637
 H     3.813519    -3.457697    -2.483862
 C     3.015926    -3.696020     0.208925
 H     3.321159    -4.461648    -0.502232
 C     2.623326    -2.998972     2.483081
 H     2.626380    -3.228448     3.547569
 C     3.036160    -3.960628     1.571423
 H     3.368023    -4.937855     1.929145
 H     3.314748    -0.062134    -1.853253
 C     4.667143     0.312900    -0.261750
 H     4.654110    -0.711036     0.142000
 H     4.795383     0.986634     0.600383
 C     5.849736     0.485205    -1.213021
 H     6.795544     0.283459    -0.683374
 H     5.774712    -0.270713    -2.015848
 C     5.875157     1.876890    -1.836585
 H     6.711342     1.963618    -2.549778
 H     6.066206     2.622620    -1.042932
 C     4.552874     2.207725    -2.520598
 H     4.407469     1.538948    -3.387788
 H     4.572454     3.235265    -2.919306
 C     3.373961     2.037688    -1.567161
 H     3.463437     2.777641    -0.753523
 H     2.422591     2.240991    -2.085581
 H     0.777837     0.978315     1.879605
 C     0.800040     2.712029     0.631411
 H    -0.077091     2.409898     0.034759
 H     1.473772     3.237230    -0.063980
 C     0.388962     3.661469     1.751655
 H    -0.101236     4.554201     1.329144
 H    -0.365856     3.163288     2.382024
 C     1.575121     4.064138     2.619681
 H     1.244239     4.714375     3.446325
 H     2.285560     4.660849     2.018829
 C     2.295837     2.835160     3.161307
 H     1.619124     2.294335     3.848447
 H     3.176515     3.131930     3.754997
 C     2.712522     1.897685     2.031404
 H     3.423967     2.431977     1.380093
 H     3.243764     1.022665     2.428561
