 106
scf done:    -2837.977003
 C    -1.334225     0.008700    -2.908827
 H    -1.178999    -0.802350    -3.638066
 H    -2.353342    -0.139585    -2.514612
 C    -1.232130     1.361444    -3.597176
 H    -0.245012     1.506409    -4.065834
 H    -1.992169     1.485360    -4.391981
 H    -1.381227     2.194102    -2.890309
Rh     0.158700     0.058448    -1.393749
 C    -2.994690     1.324665    -0.405049
 O    -2.308185    -1.206139     0.292067
 O    -1.252064     0.725884     1.580128
 C     1.692626    -0.701261     1.685348
 O     3.347324     0.145854    -0.148887
 O     1.775900     1.942143     0.720686
 P     1.750969     0.390970     0.203553
 P    -1.586735     0.241220     0.050545
 C     1.098542    -1.102046    -2.481798
 O     1.533310    -2.011588    -3.048955
 C    -2.616656     2.673236    -0.571518
 O    -1.341064     2.933803    -0.240599
 C    -0.774659     4.190751    -0.483349
 H     0.276005     4.104623    -0.183358
 H    -0.829535     4.458575    -1.552506
 H    -1.265595     4.978868     0.113653
 C    -4.313946     0.958042    -0.734255
 O    -4.660108    -0.329373    -0.579130
 C    -5.932428    -0.759389    -0.967613
 H    -5.958595    -1.841977    -0.789520
 H    -6.121225    -0.569210    -2.038453
 H    -6.730391    -0.280818    -0.372970
 C    -5.216274     1.924921    -1.206409
 H    -6.238658     1.649686    -1.460592
 C    -3.508555     3.639708    -1.043233
 H    -3.199248     4.676441    -1.169424
 C    -4.804636     3.243965    -1.354652
 H    -5.516717     3.985246    -1.725479
 C    -1.638144    -2.416609    -0.019286
 H    -0.587721    -2.196739    -0.285936
 H    -1.641153    -3.036516     0.894085
 C    -2.320733    -3.128151    -1.166140
 H    -3.359830    -3.368583    -0.880527
 H    -2.380617    -2.428204    -2.014873
 C    -1.578600    -4.386357    -1.590832
 H    -1.454261    -5.055896    -0.719813
 H    -0.559547    -4.105466    -1.909014
 C    -2.269601    -5.137967    -2.716918
 H    -3.280887    -5.460962    -2.421097
 H    -2.375522    -4.500148    -3.608873
 H    -1.706323    -6.035495    -3.014624
 C    -2.226228     1.129100     2.523859
 H    -1.651716     1.526164     3.375360
 H    -2.821772     1.962179     2.111581
 C    -3.139526     0.001953     2.970265
 H    -3.855151     0.414203     3.704266
 H    -3.735206    -0.337042     2.107005
 C    -2.391167    -1.182511     3.563965
 H    -1.917454    -0.880666     4.515581
 H    -1.560594    -1.446403     2.891341
 C    -3.273982    -2.398121     3.784929
 H    -4.114769    -2.175302     4.462402
 H    -3.702584    -2.742607     2.829851
 H    -2.708283    -3.236707     4.219651
 C     1.829326    -2.081479     1.414900
 O     2.099150    -2.404639     0.137655
 C     2.163604    -3.750232    -0.249591
 H     2.316673    -3.747221    -1.335069
 H     3.005091    -4.271376     0.238397
 H     1.224570    -4.282210    -0.021346
 C     1.372240    -0.321689     3.004144
 O     1.215064     0.989292     3.256767
 C     0.968516     1.419557     4.562554
 H     0.888541     2.513560     4.518334
 H     1.789664     1.147242     5.249195
 H     0.023208     1.012858     4.961363
 C     1.230135    -1.285964     4.012882
 H     0.989649    -0.989178     5.032088
 C     1.674113    -3.046436     2.415873
 H     1.785952    -4.106018     2.192148
 C     1.378951    -2.631699     3.708386
 H     1.259108    -3.376640     4.498600
 C     3.870449     0.425719    -1.434605
 H     3.150671     0.111681    -2.208888
 H     4.014386     1.514848    -1.553361
 C     5.187746    -0.299744    -1.596006
 H     5.624228    -0.000245    -2.565332
 H     5.886878     0.053632    -0.817179
 C     5.057473    -1.814002    -1.521904
 H     4.363749    -2.151973    -2.311255
 H     4.572126    -2.068547    -0.567010
 C     6.386827    -2.538216    -1.650105
 H     6.878452    -2.315053    -2.611200
 H     7.083366    -2.240438    -0.849382
 H     6.261249    -3.630309    -1.589617
 C     2.795450     2.498992     1.537214
 H     2.279286     3.168089     2.244041
 H     3.293383     1.715290     2.128119
 C     3.821827     3.272550     0.731291
 H     4.485800     3.786858     1.449047
 H     4.462619     2.562960     0.183788
 C     3.227071     4.280944    -0.239752
 H     2.593710     4.994489     0.318077
 H     2.549087     3.747888    -0.926810
 C     4.278957     5.036719    -1.034748
 H     4.955682     5.602317    -0.373890
 H     4.901725     4.344897    -1.624939
 H     3.823606     5.751920    -1.736508
