  92
scf done:    -2681.929159
 C     2.114904    -3.222741    -0.791469
 H     1.977791    -3.974450    -1.584689
 H     2.987420    -2.625989    -1.096479
 C     2.373562    -3.915105     0.538802
 H     3.286918    -4.539304     0.508658
 H     2.511468    -3.196918     1.363625
 H     1.538834    -4.573696     0.827968
Rh     0.410154    -1.977067    -0.527681
 O     1.525273     0.561945     1.353396
 C     3.618395    -0.433834    -0.035442
 C     1.652537     1.161916    -1.368187
 O    -1.267790     0.851568     0.167221
 C    -2.969111    -0.917387    -0.961296
 C    -1.974243    -1.257460     1.747073
 P    -1.453713    -0.827591     0.052557
 P     1.814375    -0.172504    -0.136215
 C    -0.469303    -3.385361    -1.355651
 O    -0.978049    -4.246044    -1.921149
 C     1.865678     1.846886     1.686631
 C     3.073728     2.112953     2.334226
 H     3.763439     1.295309     2.543329
 C     0.970493     2.882085     1.409437
 H     0.040859     2.644255     0.895502
 C     3.384689     3.423486     2.694813
 H     4.331241     3.630039     3.200322
 C     1.290618     4.185853     1.776782
 H     0.586763     4.991514     1.554832
 C     2.498625     4.463501     2.416670
 H     2.748047     5.488125     2.701533
 C     4.160773    -0.929520     1.156764
 H     3.519775    -1.060782     2.031412
 C     4.440336    -0.291588    -1.156167
 H     4.015218     0.079477    -2.092663
 C     5.512980    -1.247733     1.220817
 H     5.938928    -1.627019     2.152834
 C     5.801306    -0.616049    -1.107079
 C     6.658824    -0.480476    -2.331574
 H     7.727064    -0.443367    -2.075301
 H     6.509901    -1.337297    -3.009404
 H     6.408883     0.428480    -2.898582
 C     6.326120    -1.089664     0.099345
 H     7.388158    -1.342833     0.159827
 C     2.465169     2.302923    -1.357247
 H     3.265377     2.408273    -0.621983
 C     0.644790     1.041795    -2.330425
 H     0.035871     0.132098    -2.325425
 C     2.239871     3.312108    -2.289703
 H     2.861869     4.210149    -2.275760
 C     0.411824     2.044622    -3.274145
 C    -0.666546     1.892946    -4.308300
 H    -1.380623     1.103955    -4.030891
 H    -1.226457     2.830571    -4.445401
 H    -0.241330     1.622507    -5.288965
 C     1.221083     3.186599    -3.232025
 H     1.051372     3.991552    -3.953230
 C    -2.294391     1.746555     0.257250
 C    -2.828765     2.094291     1.499866
 H    -2.432479     1.625285     2.401117
 C    -2.777916     2.341796    -0.910002
 H    -2.338682     2.054162    -1.865961
 C    -3.864128     3.025487     1.564513
 H    -4.282996     3.295281     2.537043
 C    -3.811496     3.270682    -0.834149
 H    -4.191527     3.729346    -1.750169
 C    -4.362677     3.612196     0.401687
 H    -5.174328     4.341023     0.458902
 C    -2.832539    -1.230429    -2.319620
 H    -1.856124    -1.532625    -2.706750
 C    -4.218771    -0.523232    -0.470665
 H    -4.327381    -0.259277     0.584196
 C    -3.936777    -1.151570    -3.162982
 H    -3.833371    -1.404561    -4.220790
 C    -5.334021    -0.427922    -1.309097
 C    -6.646831     0.051282    -0.762555
 H    -6.935811    -0.512245     0.137773
 H    -6.577381     1.112178    -0.471873
 H    -7.454513    -0.046375    -1.501263
 C    -5.174242    -0.751317    -2.660547
 H    -6.035364    -0.685998    -3.331554
 C    -2.972777    -2.195062     2.022121
 H    -3.555205    -2.637700     1.210881
 C    -1.210538    -0.727841     2.797565
 H    -0.398670    -0.032550     2.565158
 C    -3.219003    -2.567085     3.343951
 H    -4.002036    -3.296984     3.563739
 C    -1.453222    -1.089875     4.123052
 C    -0.635936    -0.509855     5.241000
 H     0.142294     0.164728     4.857810
 H    -1.265828     0.061757     5.941426
 H    -0.141784    -1.302528     5.824613
 C    -2.474497    -2.015878     4.381916
 H    -2.679409    -2.315755     5.413668
