  82
scf done:    -2226.926373
 C     1.276287    -3.106633    -0.690355
 H     1.069671    -3.840636    -1.485027
 H     2.315983    -2.779482    -0.844435
 C     1.116841    -3.773339     0.667233
 H     0.078796    -4.098768     0.848549
 H     1.756522    -4.671166     0.766825
 H     1.392762    -3.100631     1.496318
Rh    -0.051206    -1.463724    -0.724503
 C     1.085653     0.429464     2.148643
 C     3.219779    -0.853547     0.681811
 C     1.877963     1.346855    -0.480227
 C    -2.125468     0.868173    -2.275835
 C    -3.378902    -0.656651    -0.129017
 C    -1.704336     1.564530     0.490600
 P    -1.782032     0.106623    -0.621185
 P     1.524713    -0.186944     0.459759
 C    -0.758153    -2.261024    -2.220705
 O    -1.106958    -2.693971    -3.231550
 H     0.475541     1.329325     1.982148
 C     0.294822    -0.586026     2.960081
 H     0.891464    -1.472342     3.223224
 H    -0.575601    -0.945882     2.389403
 H     1.997629     0.750601     2.676406
 H    -0.071551    -0.135960     3.895383
 C     4.076742    -0.918005    -0.425854
 H     3.744627    -0.524620    -1.390105
 C     3.672475    -1.370000     1.897995
 H     3.034585    -1.343474     2.783643
 C     5.345062    -1.471880    -0.312309
 H     5.995438    -1.505503    -1.191094
 C     4.945769    -1.928982     2.005014
 H     5.276601    -2.325728     2.968863
 C     5.804647    -1.991946     0.905750
 C     7.170971    -2.602997     1.011211
 H     7.409936    -2.882075     2.046924
 H     7.246304    -3.511945     0.392601
 H     7.948664    -1.907717     0.658063
 C     2.408170     2.494904     0.116913
 H     2.651765     2.499978     1.181689
 C     1.588085     1.373451    -1.848201
 H     1.164645     0.471328    -2.305014
 C     2.611198     3.649423    -0.632494
 H     3.011060     4.543210    -0.144811
 C     1.803408     2.529031    -2.596070
 H     1.564380     2.531961    -3.663489
 C     2.310253     3.690124    -2.000635
 C     2.557998     4.930633    -2.807680
 H     3.598708     4.958668    -3.171828
 H     1.902239     4.977041    -3.688851
 H     2.398411     5.840418    -2.210636
 H    -2.228536     0.006722    -2.954762
 C    -3.295505     1.823987    -2.421620
 H    -3.236060     2.656874    -1.704172
 H    -4.255891     1.311324    -2.269385
 H    -1.176106     1.351521    -2.559975
 H    -3.310458     2.257280    -3.434039
 C    -3.450301    -2.048055    -0.007002
 H    -2.547154    -2.638790    -0.188300
 C    -4.534123     0.093993     0.137985
 H    -4.499307     1.184449     0.092897
 C    -4.644255    -2.672519     0.348726
 H    -4.672573    -3.761771     0.440603
 C    -5.722391    -0.534628     0.491763
 H    -6.609446     0.071336     0.697872
 C    -5.802301    -1.930415     0.597184
 C    -7.096917    -2.601018     0.950681
 H    -7.751422    -2.677936     0.066366
 H    -6.933925    -3.620041     1.328951
 H    -7.649869    -2.033875     1.714248
 C    -1.036915     2.731442     0.095637
 H    -0.628979     2.821887    -0.913119
 C    -2.182973     1.492938     1.806381
 H    -2.704694     0.595521     2.146220
 C    -0.848968     3.782214     0.989370
 H    -0.310910     4.673148     0.654447
 C    -1.989956     2.545891     2.694887
 H    -2.366344     2.458384     3.718143
 C    -1.316846     3.710856     2.305928
 C    -1.130152     4.854000     3.259430
 H    -1.989999     5.543824     3.220340
 H    -1.041663     4.503181     4.297941
 H    -0.231486     5.439068     3.016098
