 106
scf done:    -2989.323037
 C    -1.400785     0.676425    -3.103571
 H    -1.316236     0.143359    -4.063415
 H    -2.460582     0.614904    -2.814047
 C    -0.987283     2.130542    -3.270112
 H     0.059437     2.227064    -3.604900
 H    -1.611302     2.657104    -4.018171
 H    -1.090591     2.698466    -2.328993
Rh    -0.047157    -0.044465    -1.652605
 C    -2.618099     1.838905    -0.072182
 C    -3.185500    -0.991023    -0.628870
 C    -1.699834    -0.392045     1.564221
 C     1.842820    -1.263762     1.264601
 C     3.395478    -0.665785    -1.034486
 C     2.352342     1.503822     0.227623
 P     1.796624    -0.188584    -0.224209
 P    -1.827046     0.178377    -0.184337
 C     0.645440    -1.194240    -2.907130
 O     0.936688    -2.082596    -3.587408
 C    -1.912522     2.832763     0.636556
 O    -0.743368     2.435650     1.166821
 C    -0.039755     3.287102     2.028207
 H     0.895287     2.768306     2.263473
 H     0.207241     4.245832     1.545836
 H    -0.614343     3.478103     2.952244
 C    -3.791775     2.227231    -0.751310
 O    -4.388235     1.299543    -1.514015
 C    -5.591467     1.577747    -2.167926
 H    -5.882729     0.649328    -2.675061
 H    -5.473981     2.378369    -2.918823
 H    -6.386754     1.863354    -1.457618
 C    -4.289130     3.533110    -0.634083
 H    -5.205545     3.822276    -1.146535
 C    -2.408032     4.135288     0.765722
 H    -1.866229     4.884299     1.341040
 C    -3.599302     4.465776     0.130175
 H    -3.992715     5.481090     0.220548
 C    -3.043851    -1.858772    -1.708037
 H    -2.138148    -1.795695    -2.316735
 C    -4.335059    -1.085257     0.166739
 H    -4.451619    -0.427064     1.031978
 C    -4.042432    -2.789450    -2.002410
 H    -3.912564    -3.461950    -2.855194
 C    -5.328391    -2.005096    -0.135298
 H    -6.222609    -2.058289     0.493091
 C    -5.201080    -2.876704    -1.229147
 C    -6.273273    -3.882281    -1.533041
 H    -6.333178    -4.649744    -0.743821
 H    -7.264928    -3.406713    -1.593253
 H    -6.085045    -4.397212    -2.485632
 C    -2.082975     0.322553     2.698054
 H    -2.453381     1.344720     2.605522
 C    -1.284472    -1.721765     1.721124
 H    -1.000349    -2.299886     0.837335
 C    -2.028457    -0.271879     3.960278
 H    -2.334345     0.306413     4.837479
 C    -1.252701    -2.314013     2.975041
 H    -0.927358    -3.353079     3.067330
 C    -1.611589    -1.595235     4.123007
 C    -1.534546    -2.236280     5.477126
 H    -2.128896    -3.162769     5.517048
 H    -0.495478    -2.513185     5.721847
 H    -1.901326    -1.565050     6.266748
 C     1.799492    -0.881763     2.616467
 O     1.627545     0.424241     2.889648
 C     1.567770     0.838546     4.225945
 H     1.440888     1.927751     4.208775
 H     0.706990     0.387422     4.747478
 H     2.496795     0.600574     4.772239
 C     1.857019    -2.645918     0.971312
 O     1.759140    -2.940286    -0.333989
 C     1.892885    -4.258129    -0.788793
 H     1.796879    -4.210947    -1.880283
 H     1.099838    -4.909568    -0.383382
 H     2.879587    -4.675333    -0.524409
 C     1.968278    -3.611654     1.975038
 H     2.008679    -4.672070     1.729214
 C     1.925773    -1.844603     3.630229
 H     1.923357    -1.547949     4.677511
 C     2.023135    -3.189531     3.299664
 H     2.119037    -3.930573     4.096938
 C     3.624508    -0.211230    -2.336871
 H     2.838407     0.343811    -2.856204
 C     4.420181    -1.357656    -0.384531
 H     4.279376    -1.710139     0.640075
 C     4.835619    -0.456674    -2.974522
 H     4.986977    -0.090532    -3.994083
 C     5.629415    -1.607315    -1.030546
 H     6.414613    -2.156644    -0.502634
 C     5.860165    -1.166924    -2.337373
 C     7.150537    -1.461061    -3.045209
 H     7.941789    -1.751277    -2.339205
 H     7.027628    -2.288994    -3.763420
 H     7.504099    -0.589178    -3.616177
 C     3.411038     1.775262     1.103153
 H     3.886061     0.959792     1.652574
 C     1.802210     2.557914    -0.502773
 H     0.986650     2.353241    -1.203462
 C     3.869987     3.075198     1.271130
 H     4.692255     3.269290     1.966390
 C     2.282560     3.858546    -0.349031
 H     1.837760     4.667003    -0.936219
 C     3.315425     4.142606     0.546616
 C     3.838826     5.538209     0.722644
 H     4.891149     5.610445     0.403371
 H     3.259999     6.263356     0.133609
 H     3.802116     5.850791     1.778401
