  94
scf done:    -2680.871141
 C    -1.512579    -3.458206     0.041642
 H    -1.137051    -4.434184     0.386300
 H    -2.375043    -3.206532     0.676455
 C    -1.950050    -3.541189    -1.414124
 H    -2.706942    -4.332935    -1.576240
 H    -2.401278    -2.591889    -1.743339
 H    -1.106522    -3.767637    -2.089156
Rh    -0.018211    -1.959418     0.032159
 C    -1.727767     1.243102    -0.321421
 O    -3.200462    -0.932397     0.164521
 O    -1.759998    -0.049098     2.035696
 C     1.837604     1.181934     0.287168
 O     3.141717    -1.125115    -0.179843
 O     1.752120    -0.139302    -2.049013
 P     1.648671    -0.496970    -0.453084
 P    -1.666330    -0.434357     0.451675
 C     1.157855    -3.255004     0.653891
 O     1.838041    -4.004827     1.199082
 C    -1.516891     2.486912     0.308463
 O    -1.112136     2.488620     1.586629
 C    -1.100891     3.686616     2.308519
 H    -0.808771     3.424986     3.333272
 H    -0.364813     4.402304     1.906899
 H    -2.098852     4.158385     2.327338
 C    -2.052835     1.247306    -1.694085
 O    -2.170636     0.031605    -2.262549
 C    -2.795708    -0.107734    -3.508657
 H    -2.863103    -1.186495    -3.697901
 H    -2.212091     0.361589    -4.317471
 H    -3.811623     0.321823    -3.497108
 C    -2.256516     2.433783    -2.404751
 H    -2.531591     2.416791    -3.458517
 C    -1.729341     3.682630    -0.398943
 H    -1.595408     4.644097     0.094137
 C    -2.106521     3.642354    -1.734504
 H    -2.274996     4.579164    -2.271681
 C    -4.341491    -0.214285     0.637241
 H    -4.001052     0.687101     1.176989
 C    -5.088010    -1.111413     1.603729
 H    -4.438332    -1.382850     2.446484
 H    -5.401355    -2.037428     1.097513
 H    -5.983155    -0.606068     1.997261
 C    -5.181807     0.200931    -0.554460
 H    -4.638614     0.915565    -1.188387
 H    -5.439952    -0.682189    -1.159040
 H    -6.114805     0.680761    -0.222012
 C    -0.968671    -0.696444     3.037071
 H    -0.037043    -1.044805     2.555596
 C    -1.709720    -1.895156     3.591462
 H    -1.909010    -2.621800     2.791291
 H    -2.664871    -1.590424     4.047847
 H    -1.103457    -2.396953     4.361175
 C    -0.652922     0.350807     4.083288
 H    -1.583535     0.771156     4.496294
 H    -0.078818    -0.091938     4.911081
 H    -0.071196     1.169126     3.637638
 C     1.680905     2.424708    -0.360428
 O     1.263860     2.425563    -1.634615
 C     1.314412     3.606718    -2.381061
 H     0.998205     3.341235    -3.397775
 H     0.624354     4.372303    -1.989691
 H     2.337379     4.020505    -2.417394
 C     2.173424     1.188771     1.657842
 O     2.236179    -0.022527     2.238405
 C     2.835202    -0.178727     3.494394
 H     2.846813    -1.257277     3.695208
 H     2.263713     0.328275     4.289207
 H     3.871302     0.200463     3.494791
 C     2.440132     2.375123     2.348243
 H     2.723002     2.360265     3.400007
 C     1.956666     3.618909     0.327141
 H     1.865083     4.578445    -0.179410
 C     2.342202     3.579460     1.660710
 H     2.559651     4.514862     2.182580
 C     4.333717    -0.483064    -0.638690
 H     4.057739     0.426638    -1.200997
 C     5.044541    -1.439965    -1.574859
 H     4.399908    -1.686059    -2.428907
 H     5.289927    -2.374554    -1.047401
 H     5.977377    -0.996160    -1.954729
 C     5.181714    -0.097182     0.557927
 H     4.682398     0.669123     1.166330
 H     5.368974    -0.981028     1.186897
 H     6.150559     0.308355     0.228957
 C     0.957109    -0.845634    -3.002597
 H    -0.002810    -1.111887    -2.521890
 C     1.654484    -2.119509    -3.437264
 H     1.847836    -2.764676    -2.567608
 H     2.611840    -1.892602    -3.932295
 H     1.023901    -2.681284    -4.143162
 C     0.699780     0.117170    -4.141689
 H     0.166890     1.004305    -3.772054
 H     1.654026     0.446075    -4.582294
 H     0.101916    -0.362873    -4.930829
