  92
scf done:    -2681.920938
 C    -0.202600    -2.808785    -1.998860
 H     0.491747    -3.648970    -2.153863
 H    -1.134527    -3.247908    -1.618556
 C    -0.439261    -2.086821    -3.316221
 H    -0.842094    -2.766808    -4.090623
 H    -1.162849    -1.259836    -3.217969
 H     0.489842    -1.656240    -3.726763
Rh     0.596555    -1.298231    -0.753737
 O    -2.005363     0.815976    -1.054882
 C    -2.907460    -1.740327    -0.765415
 C    -1.930986    -0.299216     1.515897
 O     2.515988     0.394036     1.522065
 C     3.177317     0.950895    -1.102855
 C     0.999865     2.159212     0.291999
 P     1.772948     0.528258     0.010410
 P    -1.565689    -0.602583    -0.261432
 C     2.000765    -2.499584    -0.563051
 O     2.769958    -3.336108    -0.396899
 C    -2.850241     1.819849    -0.678065
 C    -3.887094     2.175051    -1.545637
 H    -4.006946     1.631778    -2.484146
 C    -2.654453     2.535459     0.504755
 H    -1.812254     2.293360     1.151383
 C    -4.747560     3.217588    -1.210114
 H    -5.556454     3.487391    -1.893361
 C    -3.528574     3.566945     0.835868
 H    -3.368531     4.117690     1.765817
 C    -4.581859     3.909319    -0.010758
 H    -5.262286     4.721190     0.255222
 C    -3.704733    -1.422897    -1.867951
 H    -3.539674    -0.477857    -2.385279
 C    -3.068232    -2.982477    -0.112789
 C    -2.192958    -3.407709     1.029786
 H    -2.475681    -2.904723     1.967929
 H    -1.136279    -3.155272     0.835087
 H    -2.266059    -4.492163     1.190388
 C    -4.699631    -2.291172    -2.307538
 H    -5.318055    -2.022801    -3.167073
 C    -4.075113    -3.838934    -0.571363
 H    -4.208947    -4.802801    -0.072604
 C    -4.892336    -3.501405    -1.647479
 H    -5.669101    -4.194261    -1.979741
 C    -0.800243    -0.233890     2.338116
 H     0.175817    -0.393393     1.877233
 C    -3.217801    -0.136623     2.085952
 C    -4.512255    -0.233483     1.331971
 H    -4.791555    -1.284690     1.159483
 H    -4.472444     0.249303     0.349338
 H    -5.318131     0.241625     1.908042
 C    -0.895325     0.009288     3.703350
 H     0.008583     0.060837     4.314996
 C    -3.287517     0.111809     3.463323
 H    -4.273645     0.251377     3.914088
 C    -2.154071     0.188627     4.267955
 H    -2.259513     0.386938     5.337460
 C     3.228050    -0.735191     1.840606
 C     2.652852    -1.694088     2.675279
 H     1.634616    -1.549240     3.037520
 C     4.526776    -0.905930     1.358353
 H     4.961652    -0.148132     0.705404
 C     3.380008    -2.830051     3.021043
 H     2.924440    -3.583271     3.668029
 C     5.243001    -2.048443     1.707427
 H     6.256110    -2.184775     1.322120
 C     4.673835    -3.013855     2.535821
 H     5.236928    -3.911284     2.800616
 C     3.281915     0.179464    -2.266656
 H     2.548404    -0.617309    -2.428414
 C     4.109795     1.987056    -0.861584
 C     4.067817     2.878183     0.345296
 H     3.858475     2.314596     1.263559
 H     3.271705     3.633156     0.248318
 H     5.022627     3.408940     0.463611
 C     4.285275     0.407682    -3.203065
 H     4.344063    -0.206866    -4.103953
 C     5.120303     2.187372    -1.809962
 H     5.855371     2.976606    -1.629501
 C     5.212643     1.417858    -2.967643
 H     6.015542     1.609238    -3.683912
 C     0.921194     2.695291     1.582870
 H     1.317888     2.121417     2.421034
 C     0.486286     2.877090    -0.808104
 C     0.516708     2.334599    -2.206618
 H     0.350930     1.245580    -2.225563
 H     1.487868     2.528503    -2.689264
 H    -0.269698     2.800159    -2.816561
 C     0.378143     3.959599     1.793713
 H     0.330521     4.369078     2.805414
 C    -0.048528     4.147961    -0.569846
 H    -0.453503     4.712336    -1.413863
 C    -0.094066     4.695068     0.708974
 H    -0.521312     5.689213     0.859448
