 100
scf done:    -2910.911838
 C    -0.025695     3.607974     0.039869
 H     0.112406     4.268142    -0.830222
 H    -1.109048     3.610745     0.244309
 C     0.745278     4.127819     1.243375
 H     0.427810     5.150310     1.522087
 H     0.590821     3.496861     2.134420
 H     1.830532     4.163801     1.054069
Rh     0.772104     1.665036    -0.303939
 C    -1.685501     1.146720     2.138488
 O    -2.615638     1.572510    -0.235746
 O    -1.427428    -0.675004     0.069744
 C     1.480555    -1.730474    -1.402477
 O     3.439999    -0.255484    -0.500240
 O     1.649634    -1.075254     1.224048
 P     1.788594    -0.350404    -0.265866
 P    -1.224451     0.945626     0.395930
 C     1.910017     2.459313    -1.577424
 O     2.470319     2.907465    -2.473135
 C    -0.647756     1.019311     3.067023
 H     0.369673     0.823668     2.715664
 C    -2.989689     1.402106     2.572776
 H    -3.784420     1.507226     1.832108
 C    -0.928708     1.127086     4.426832
 H    -0.125673     1.022733     5.160273
 C    -3.281329     1.517811     3.934539
 C    -4.677001     1.820238     4.396951
 H    -4.894237     1.344823     5.364593
 H    -4.820203     2.905941     4.526477
 H    -5.424426     1.476041     3.667966
 C    -2.232408     1.370764     4.852629
 H    -2.443448     1.454448     5.922568
 C    -2.944079     1.679520    -1.566279
 C    -2.007948     2.015560    -2.539847
 H    -0.968663     2.179574    -2.241193
 C    -4.292895     1.453503    -1.882866
 C    -5.277315     1.112134    -0.807603
 H    -4.962944     0.217056    -0.249208
 H    -5.366261     1.933788    -0.078756
 H    -6.272095     0.922472    -1.232429
 C    -2.408515     2.110257    -3.870907
 H    -1.671850     2.367177    -4.635483
 C    -4.663600     1.557285    -3.225942
 H    -5.708353     1.378620    -3.494694
 C    -3.736788     1.877446    -4.218273
 H    -4.055895     1.948542    -5.260475
 C    -2.614461    -1.357829    -0.034400
 C    -3.331264    -1.686803     1.118392
 H    -2.953902    -1.361821     2.088534
 C    -3.040632    -1.767426    -1.308228
 C    -2.277403    -1.435026    -2.554620
 H    -2.849815    -0.736177    -3.184142
 H    -1.309727    -0.973509    -2.328043
 H    -2.090194    -2.342526    -3.147806
 C    -4.509795    -2.419603     1.017289
 H    -5.069874    -2.673449     1.920105
 C    -4.228548    -2.507594    -1.374719
 H    -4.581445    -2.834847    -2.356744
 C    -4.962127    -2.829674    -0.236408
 H    -5.885390    -3.406297    -0.327235
 C     2.075261    -1.732807    -2.670002
 H     2.786508    -0.950978    -2.943265
 C     0.572752    -2.733329    -1.057531
 H     0.095630    -2.719543    -0.077440
 C     1.757528    -2.745150    -3.569454
 H     2.219336    -2.756180    -4.559556
 C     0.252297    -3.759302    -1.951460
 C    -0.726778    -4.822340    -1.548018
 H    -0.861870    -5.571263    -2.340789
 H    -0.387394    -5.343776    -0.639336
 H    -1.711328    -4.383154    -1.318597
 C     0.857046    -3.749113    -3.211940
 H     0.618136    -4.541170    -3.927079
 C     4.153663     0.820828    -0.035245
 C     3.929396     1.341992     1.239170
 H     3.185878     0.874679     1.887310
 C     5.116620     1.367951    -0.894984
 C     5.310983     0.803347    -2.268098
 H     5.398229    -0.292848    -2.243731
 H     4.450057     1.046754    -2.912671
 H     6.210685     1.219219    -2.741309
 C     4.661433     2.446324     1.669715
 H     4.479005     2.860592     2.663679
 C     5.844118     2.466945    -0.430735
 H     6.597079     2.910984    -1.087438
 C     5.620749     3.011027     0.833392
 H     6.199581     3.875945     1.164465
 C     2.100800    -2.320037     1.603472
 C     3.327751    -2.827390     1.178489
 H     3.951709    -2.234200     0.510922
 C     1.260004    -3.052833     2.456986
 C    -0.054600    -2.487811     2.896820
 H     0.079205    -1.719572     3.675065
 H    -0.572805    -1.992068     2.064320
 H    -0.704916    -3.273190     3.305596
 C     3.732915    -4.090438     1.604211
 H     4.693336    -4.487067     1.267258
 C     1.695524    -4.316164     2.866090
 H     1.049450    -4.902879     3.525047
 C     2.918167    -4.839043     2.448847
 H     3.231048    -5.830919     2.782345
