 106
scf done:    -2989.283869
 C    -1.116847    -0.151002    -3.208173
 H    -0.781529    -0.769105    -4.048711
 H    -2.207710    -0.186744    -3.096333
 C    -0.504497     1.207611    -3.140780
 H     0.352626     1.363432    -3.807775
 H    -1.212731     2.042606    -3.239874
 H    -0.106259     1.420955    -2.068030
Rh    -0.040905    -0.428299    -1.467169
 C    -2.539436     1.392555     0.576828
 C    -3.537847    -1.036953    -0.903123
 C    -1.998762    -1.408547     1.411578
 C     2.387023    -0.288825     1.338855
 C     3.533155    -0.719073    -1.207406
 C     2.427817     1.880965    -0.805104
 P     2.044162     0.098051    -0.440213
 P    -2.058846    -0.265699    -0.051772
 C     0.337903    -2.171925    -1.820120
 O     0.498809    -3.312274    -1.957744
 C    -2.204623     1.854448     1.864914
 O    -1.588586     0.969393     2.665079
 C    -1.132166     1.344313     3.930941
 H    -0.412023     2.179495     3.870198
 H    -1.961926     1.632236     4.599875
 H    -0.623415     0.463929     4.343617
 C    -3.004536     2.344999    -0.351264
 O    -3.183841     1.877499    -1.602876
 C    -3.702984     2.716969    -2.594217
 H    -3.773053     2.110862    -3.506079
 H    -3.044062     3.581958    -2.784450
 H    -4.708814     3.086831    -2.328777
 C    -3.256201     3.669517     0.016625
 H    -3.642837     4.387339    -0.705562
 C    -2.469831     3.174482     2.252771
 H    -2.239723     3.510151     3.263322
 C    -3.002083     4.064670     1.327984
 H    -3.204590     5.095430     1.627561
 C    -3.155164    -2.258579    -1.488200
 H    -2.115385    -2.577004    -1.396961
 C    -4.888168    -0.637127    -1.018018
 C    -5.518397     0.586945    -0.410200
 H    -5.706577     1.354391    -1.176542
 H    -4.916565     1.043799     0.377409
 H    -6.495452     0.324583     0.022644
 C    -4.040699    -3.064944    -2.187349
 H    -3.691973    -4.004708    -2.621312
 C    -5.763737    -1.462171    -1.746888
 H    -6.807625    -1.146566    -1.836804
 C    -5.363611    -2.654117    -2.332357
 H    -6.081683    -3.262699    -2.887438
 C    -0.822960    -2.152807     1.518393
 H    -0.033984    -1.974680     0.786245
 C    -3.036630    -1.623891     2.348569
 C    -4.343371    -0.895245     2.319683
 H    -4.959514    -1.235217     1.474027
 H    -4.207559     0.188849     2.209505
 H    -4.909773    -1.077713     3.243460
 C    -0.647489    -3.102640     2.523080
 H     0.283579    -3.668050     2.579866
 C    -2.834560    -2.572864     3.355490
 H    -3.633043    -2.734937     4.085255
 C    -1.658550    -3.313688     3.450570
 H    -1.539432    -4.051440     4.248144
 C     2.626656     0.610126     2.393292
 O     2.701990     1.913129     2.067489
 C     2.986512     2.871977     3.041551
 H     3.012415     3.838308     2.520840
 H     2.208939     2.906689     3.825452
 H     3.965913     2.695062     3.519176
 C     2.450590    -1.666547     1.631125
 O     2.235522    -2.484591     0.585768
 C     2.631713    -3.828906     0.627078
 H     2.455012    -4.226015    -0.379473
 H     2.034197    -4.413343     1.346791
 H     3.701304    -3.918076     0.880476
 C     2.729335    -2.135092     2.918726
 H     2.789210    -3.204243     3.118896
 C     2.855434     0.151544     3.697300
 H     3.030748     0.856335     4.509157
 C     2.908215    -1.216175     3.944845
 H     3.105617    -1.571529     4.958844
 C     3.329499    -1.412573    -2.403939
 H     2.324419    -1.412131    -2.830295
 C     4.839490    -0.649350    -0.666742
 C     5.217257     0.156952     0.544675
 H     5.061416    -0.409807     1.476047
 H     4.633509     1.083334     0.626159
 H     6.281912     0.427601     0.494083
 C     4.362504    -2.086551    -3.048644
 H     4.164782    -2.623282    -3.979402
 C     5.862344    -1.345015    -1.325910
 H     6.873034    -1.298149    -0.910094
 C     5.637632    -2.067935    -2.493751
 H     6.463562    -2.596136    -2.976814
 C     3.465576     2.175175    -1.702755
 H     4.094073     1.369984    -2.083256
 C     1.608072     2.935184    -0.351456
 C     0.440437     2.737218     0.560009
 H     0.535206     3.360568     1.461185
 H     0.315267     1.694414     0.872962
 H    -0.486377     3.046656     0.055995
 C     3.717149     3.476581    -2.128824
 H     4.536189     3.667427    -2.826215
 C     1.880029     4.237061    -0.787587
 H     1.239969     5.048231    -0.427303
 C     2.922719     4.519293    -1.664015
 H     3.107065     5.546797    -1.987404
