 108
scf done:    -2767.252021
 C    -1.121378     2.295142    -2.692391
 H    -1.557046     1.927646    -3.636773
 H    -1.983794     2.563947    -2.062968
 C    -0.296563     3.546378    -2.970670
 H     0.545618     3.345475    -3.652833
 H    -0.905151     4.345478    -3.434614
 H     0.134970     3.973294    -2.050250
Rh     0.086531     0.834305    -1.743435
 C    -0.704754     0.910714     1.702799
 C    -3.014609     1.543704     0.081592
 C    -1.998799    -1.186597     0.120992
 C     1.428879    -2.087011    -0.153495
 C     3.280574    -0.630845    -1.760358
 C     2.528627     0.549255     0.758417
 P     1.786920    -0.349923    -0.668625
 P    -1.423068     0.572996     0.040448
 C     0.694794     0.474841    -3.441923
 O     0.957818     0.136434    -4.512704
 C    -0.463645    -0.123444     2.620122
 H    -0.783932    -1.141883     2.397686
 C    -0.248501     2.214901     1.999877
 C    -0.428301     3.359506     1.048185
 H    -1.408196     3.844922     1.184624
 H    -0.365643     3.022829     0.000498
 H     0.350950     4.119004     1.199645
 C     0.199979     0.114847     3.820998
 H     0.373554    -0.708859     4.517336
 C     0.415715     2.432277     3.212672
 H     0.784689     3.437473     3.431964
 C     0.641340     1.401979     4.120140
 H     1.169273     1.602380     5.055473
 H    -3.330114     1.640985     1.129761
 H    -2.767129     2.554613    -0.278233
 C    -4.129282     0.950901    -0.736671
 C    -3.916384     0.453788    -2.029386
 H    -2.917665     0.495917    -2.470700
 C    -5.413375     0.874879    -0.192354
 H    -5.580210     1.245671     0.823512
 C    -4.971285    -0.111462    -2.739255
 H    -4.797013    -0.499632    -3.745962
 C    -6.482951     0.307799    -0.891463
 C    -7.837032     0.209405    -0.251858
 H    -7.811171    -0.487168     0.602018
 H    -8.171939     1.184897     0.133737
 H    -8.594248    -0.153286    -0.961199
 C    -6.244212    -0.187634    -2.176584
 H    -7.064790    -0.639744    -2.740653
 H    -2.046454    -1.499397    -0.930487
 H    -1.158400    -1.759496     0.542084
 C    -3.301742    -1.518054     0.796178
 C    -4.214793    -2.337936     0.125069
 H    -3.972515    -2.703973    -0.875320
 C    -3.650372    -1.038567     2.064965
 H    -2.961445    -0.387167     2.606223
 C    -5.436889    -2.661990     0.705998
 H    -6.142466    -3.296164     0.163789
 C    -4.876796    -1.346050     2.660115
 C    -5.240951    -0.778426     4.002105
 H    -4.361239    -0.369222     4.518839
 H    -5.974907     0.038485     3.899498
 H    -5.696623    -1.540251     4.652732
 C    -5.769079    -2.170505     1.965016
 H    -6.732595    -2.426323     2.415314
 C     0.647909    -2.734595    -1.126918
 H     0.295981    -2.145136    -1.980387
 C     1.865489    -2.819762     0.973596
 C     2.748610    -2.274686     2.058822
 H     2.292106    -1.419824     2.576220
 H     3.720386    -1.952029     1.656472
 H     2.946364    -3.052074     2.808986
 C     0.293914    -4.074123    -1.019567
 H    -0.310726    -4.545207    -1.797657
 C     1.466995    -4.161778     1.076221
 H     1.788597    -4.730255     1.953165
 C     0.699755    -4.791855     0.101916
 H     0.419166    -5.840916     0.222349
 H     2.905063    -1.178496    -2.637258
 H     3.589875     0.368144    -2.104052
 C     4.393883    -1.361864    -1.083533
 C     5.405069    -0.667019    -0.403693
 H     5.424546     0.426000    -0.436050
 C     4.398219    -2.760009    -1.043518
 H     3.614442    -3.307758    -1.574520
 C     6.374448    -1.364379     0.311295
 H     7.160246    -0.816824     0.837530
 C     5.357633    -3.475413    -0.319406
 C     5.298242    -4.974382    -0.271342
 H     4.326574    -5.313621     0.122384
 H     5.406922    -5.410181    -1.277210
 H     6.090852    -5.391747     0.365261
 C     6.345975    -2.758056     0.362340
 H     7.105112    -3.297972     0.934800
 H     1.815816     0.461911     1.590411
 H     3.444204     0.030866     1.072336
 C     2.848374     2.008882     0.543618
 C     2.559890     2.719246    -0.622366
 H     2.049027     2.221838    -1.458180
 C     3.461331     2.693816     1.603643
 H     3.685505     2.145579     2.524007
 C     2.867504     4.078089    -0.714626
 H     2.625443     4.619801    -1.632093
 C     3.771760     4.051656     1.532305
 C     4.433018     4.756795     2.681495
 H     4.409480     4.147847     3.596407
 H     5.489499     4.977449     2.456297
 H     3.943397     5.718654     2.898248
 C     3.463442     4.741746     0.350297
 H     3.695486     5.807564     0.270182
