  80
scf done:    -2524.785482
 C    -2.109417     1.581755    -2.250267
 H    -2.060175     1.574348    -3.345589
 H    -3.116261     1.289738    -1.926449
 C    -1.592025     2.843958    -1.610444
 H    -1.164506     3.562316    -2.324121
 H    -2.328815     3.348402    -0.968339
 H    -0.737459     2.626156    -0.876317
Rh    -0.523735     0.630074    -1.289138
 O    -2.765453     0.142539     1.376003
 C    -3.410770    -1.244260    -0.833964
 C    -1.321439    -2.006119     0.865637
 O     2.067776    -1.239877    -0.402686
 C     2.787683     1.418064    -0.552437
 C     1.434751     0.382175     1.703343
 P     1.417610     0.280678    -0.121923
 P    -1.962946    -0.511800     0.032414
 C     0.225263     0.026341    -2.885061
 O     0.632888    -0.514820    -3.818948
 C    -2.979940     1.489772     1.431466
 C    -2.019381     2.313318     2.019131
 H    -1.105894     1.860831     2.407332
 C    -4.160482     2.032594     0.920551
 H    -4.894540     1.369498     0.458432
 C    -2.244148     3.685575     2.097424
 H    -1.490011     4.328885     2.557794
 C    -4.377465     3.406892     1.006255
 H    -5.301818     3.831732     0.607481
 C    -3.421485     4.237812     1.591508
 H    -3.594982     5.314375     1.654014
 C    -3.317115    -1.545643    -2.195412
 C    -4.584213    -1.556230    -0.137434
 C    -5.551471    -2.462938    -2.157643
 C    -5.651444    -2.158032    -0.799709
 C    -4.382230    -2.158863    -2.852834
 H    -2.404558    -1.280767    -2.735782
 H    -4.300462    -2.390938    -3.917450
 H    -6.389447    -2.936229    -2.675305
 H    -6.566988    -2.394040    -0.251504
 H    -4.655455    -1.320574     0.926809
 C    -1.634888    -2.313602     2.193311
 C    -0.478608    -2.852004     0.136282
 C    -0.250443    -4.292077     2.062211
 C     0.055961    -3.990161     0.734448
 C    -1.099508    -3.455435     2.786833
 H    -2.280114    -1.640942     2.760444
 H    -1.341674    -3.689014     3.826782
 H     0.174261    -5.182295     2.532765
 H     0.726144    -4.636673     0.163340
 H    -0.212860    -2.594667    -0.891852
 C     3.402159    -1.540377    -0.420506
 C     4.024284    -2.062941     0.713950
 H     3.442191    -2.211815     1.623801
 C     4.125033    -1.350510    -1.599798
 H     3.611200    -0.947456    -2.474670
 C     5.381016    -2.380375     0.666511
 H     5.868199    -2.789117     1.555160
 C     5.479566    -1.667915    -1.634936
 H     6.044434    -1.512939    -2.557178
 C     6.113748    -2.179447    -0.502295
 H     7.177168    -2.426765    -0.532859
 C     2.674741     2.220710    -1.692365
 C     3.966979     1.467739     0.206644
 C     4.895186     3.090582    -1.321254
 C     5.015602     2.295158    -0.180599
 C     3.723161     3.057043    -2.073483
 H     1.753352     2.179470    -2.279967
 H     3.622752     3.682263    -2.963678
 H     5.719940     3.741341    -1.622292
 H     5.933844     2.318237     0.410683
 H     4.066924     0.851248     1.102309
 C     1.264419    -0.761411     2.489642
 C     1.496563     1.638511     2.323042
 C     1.229377     0.599833     4.487475
 C     1.396552     1.745229     3.707577
 C     1.164470    -0.650114     3.875683
 H     1.199929    -1.742090     2.015128
 H     1.026097    -1.551995     4.476424
 H     1.148960     0.684305     5.573765
 H     1.450218     2.728516     4.181111
 H     1.626557     2.539796     1.717796
