  96
scf done:    -2982.562177
 C    -1.361788    -3.262804    -1.291917
 H    -0.996932    -4.289434    -1.160132
 H    -2.403271    -3.210620    -0.957687
 C    -1.142224    -2.719228    -2.688850
 H    -0.714448    -3.454652    -3.387770
 H    -2.056419    -2.292964    -3.128831
 H    -0.399607    -1.862076    -2.693052
Rh    -0.050465    -1.829601    -0.544775
 O    -1.464416     1.099406    -0.986930
 C    -3.435778    -0.748776    -0.818115
 C    -1.993734     0.073844     1.614164
 O     2.186434    -0.345901     1.272092
 C     3.259972    -1.081578    -1.163972
 C     1.779434     1.323672    -0.938706
 P     1.756986    -0.413423    -0.341010
 P    -1.774585    -0.337311    -0.172919
 C     0.790592    -3.098011     0.500223
 O     1.228863    -3.823867     1.283784
 C    -2.072704     2.303929    -1.125487
 C    -1.515290     3.145115    -2.096041
 H    -0.661726     2.780326    -2.669553
 C    -3.171412     2.732227    -0.380405
 H    -3.637794     2.060847     0.337554
 C    -2.038484     4.417036    -2.296957
 H    -1.589424     5.066744    -3.052512
 C    -3.684741     4.012685    -0.591876
 H    -4.545687     4.341446    -0.003869
 C    -3.123630     4.864153    -1.540765
 H    -3.533447     5.864232    -1.698271
 C    -3.895641    -0.210868    -2.019191
 H    -3.303040     0.552834    -2.525479
 C    -4.193510    -1.759199    -0.193105
 O    -3.677486    -2.246453     0.951028
 C    -4.267858    -3.353086     1.568913
 H    -5.287983    -3.127162     1.927621
 H    -3.633466    -3.602700     2.428280
 H    -4.310770    -4.221265     0.888617
 C    -5.099628    -0.635776    -2.584209
 H    -5.446545    -0.195566    -3.521148
 C    -5.395359    -2.192237    -0.755821
 H    -5.981893    -2.975190    -0.274172
 C    -5.844744    -1.622627    -1.948873
 H    -6.785850    -1.967634    -2.384051
 C    -0.851853    -0.105588     2.402264
 H     0.071524    -0.426588     1.919589
 C    -3.194971     0.427687     2.269332
 O    -4.303430     0.563911     1.515482
 C    -5.561636     0.671747     2.116606
 H    -5.747606    -0.164488     2.812388
 H    -6.295253     0.630792     1.301164
 H    -5.681066     1.624375     2.661930
 C    -0.862681     0.099992     3.779967
 H     0.054228    -0.044556     4.354592
 C    -3.213971     0.625268     3.654479
 H    -4.142224     0.901431     4.154856
 C    -2.049569     0.468634     4.403342
 H    -2.083648     0.626610     5.484378
 C     3.363586    -0.037487     1.881561
 C     3.555601     1.237604     2.415083
 H     2.766477     1.978053     2.284963
 C     4.334829    -1.027606     2.038390
 H     4.145945    -2.022881     1.631855
 C     4.738510     1.525201     3.091136
 H     4.889568     2.522760     3.511861
 C     5.517469    -0.725619     2.710378
 H     6.278978    -1.500029     2.832093
 C     5.726427     0.549807     3.236312
 H     6.652270     0.779882     3.768515
 C     3.154405    -2.307669    -1.825743
 H     2.177918    -2.801999    -1.828290
 C     4.516661    -0.429996    -1.147902
 O     4.571753     0.759347    -0.536650
 C     5.793195     1.429556    -0.401555
 H     6.524463     0.822377     0.157795
 H     5.579472     2.340125     0.170631
 H     6.214278     1.706974    -1.383402
 C     4.250303    -2.900121    -2.450816
 H     4.139440    -3.859773    -2.958905
 C     5.621793    -1.028960    -1.762159
 H     6.594770    -0.538248    -1.740544
 C     5.482529    -2.256997    -2.407039
 H     6.356726    -2.710238    -2.881460
 C     2.269928     1.589327    -2.219695
 H     2.651139     0.761413    -2.822647
 C     1.253953     2.394410    -0.188114
 O     0.699701     2.098521     1.001490
 C     0.014394     3.099048     1.710876
 H     0.701387     3.888606     2.063053
 H    -0.438922     2.602199     2.577258
 H    -0.781859     3.552000     1.097519
 C     2.309704     2.882854    -2.735909
 H     2.705465     3.060056    -3.737989
 C     1.328804     3.700055    -0.687093
 H     0.941624     4.532575    -0.100823
 C     1.861548     3.940290    -1.950614
 H     1.902160     4.965304    -2.327067
