 100
scf done:    -2910.768193
 C    -1.065239     0.685841    -3.364993
 H    -0.675370     0.399992    -4.354364
 H    -2.110713     0.344909    -3.334992
 C    -0.989920     2.195181    -3.201484
 H    -1.454056     2.728077    -4.053078
 H    -1.518457     2.538193    -2.296671
 H     0.051511     2.556733    -3.136975
Rh     0.110196    -0.101749    -1.811317
 C    -1.377303     1.394016     1.153833
 C    -3.271790     0.841790    -0.899307
 C    -2.147440    -1.338498     0.450026
 C     1.538591    -1.746045     1.053485
 C     3.472869    -0.812222    -0.832061
 C     2.144658     1.102420     0.698113
 P     1.782375    -0.446444    -0.212199
 P    -1.639063     0.263469    -0.277205
 C     0.761318    -1.279008    -3.055410
 O     1.019269    -2.143087    -3.776420
 C    -1.563631     1.044326     2.493418
 H    -1.892262     0.039151     2.759043
 C    -0.947153     2.693433     0.850162
 H    -0.770473     2.965597    -0.194683
 C    -1.318439     1.980238     3.498490
 H    -1.453764     1.695322     4.545203
 C    -0.740215     3.655255     1.841380
 C    -0.340692     5.058555     1.490875
 H    -0.284761     5.197102     0.402477
 H    -1.068283     5.784538     1.887520
 H     0.644294     5.314014     1.910899
 C    -0.919599     3.273116     3.177626
 H    -0.746613     4.003416     3.973462
 C    -3.845505     2.083036    -0.594883
 H    -3.338361     2.768812     0.086498
 C    -3.969252    -0.012563    -1.759987
 H    -3.548625    -0.992264    -2.003057
 C    -5.067573     2.457036    -1.136989
 H    -5.520069     3.421720    -0.899732
 C    -5.197262     0.348140    -2.308128
 H    -5.707202    -0.348962    -2.973272
 C    -5.753717     1.596097    -2.001999
 O    -6.931709     2.042266    -2.482015
 C    -7.652819     1.227681    -3.362302
 H    -7.945999     0.271806    -2.892767
 H    -8.560712     1.781881    -3.632611
 H    -7.081691     1.008936    -4.281900
 C    -1.465136    -2.511454     0.099611
 H    -0.632480    -2.438405    -0.605118
 C    -3.249565    -1.440611     1.304853
 H    -3.838869    -0.550967     1.541868
 C    -1.836459    -3.737196     0.627557
 H    -1.300078    -4.650786     0.367508
 C    -3.627998    -2.664900     1.852959
 H    -4.489383    -2.706984     2.520024
 C    -2.907905    -3.822272     1.525593
 O    -3.181690    -5.047484     2.014709
 C    -4.240828    -5.194555     2.917263
 H    -5.208515    -4.909612     2.467812
 H    -4.277210    -6.256794     3.190507
 H    -4.086818    -4.596032     3.832948
 C     1.958382    -3.056321     0.785470
 H     2.549631    -3.269981    -0.108166
 C     0.763328    -1.504142     2.191731
 H     0.402473    -0.493707     2.390534
 C     1.619962    -4.085619     1.658948
 H     1.955451    -5.104355     1.449365
 C     0.406532    -2.531893     3.070117
 C    -0.489946    -2.251230     4.240619
 H    -0.317679    -1.245267     4.650487
 H    -1.546768    -2.303828     3.928019
 H    -0.346142    -2.983561     5.048111
 C     0.852237    -3.827397     2.793099
 H     0.581751    -4.646235     3.465256
 C     4.499514    -1.202353     0.045572
 H     4.278421    -1.366190     1.103353
 C     3.797846    -0.590585    -2.168725
 H     3.017438    -0.264362    -2.859901
 C     5.792656    -1.390011    -0.409169
 H     6.594017    -1.700836     0.263830
 C     5.098941    -0.768849    -2.641729
 H     5.309356    -0.589883    -3.696187
 C     6.104997    -1.176964    -1.761847
 O     7.387457    -1.386084    -2.114338
 C     7.760232    -1.189274    -3.449687
 H     7.595494    -0.146099    -3.772367
 H     8.832114    -1.415422    -3.513992
 H     7.211551    -1.861808    -4.132328
 C     2.137532     2.278096    -0.070336
 H     1.854588     2.222232    -1.127031
 C     2.509592     1.191355     2.040140
 H     2.552304     0.292941     2.658889
 C     2.476835     3.498588     0.486553
 H     2.476062     4.414977    -0.106155
 C     2.821793     2.420299     2.623209
 H     3.078756     2.454875     3.681950
 C     2.803242     3.581543     1.847178
 O     3.062923     4.818943     2.323161
 C     3.388269     4.964005     3.677434
 H     4.307692     4.411658     3.939150
 H     3.557072     6.034778     3.848100
 H     2.569234     4.621048     4.334408
