 114
scf done:    -2694.339894
 C    -1.603629     0.931098    -3.085801
 H    -1.278931     0.834829    -4.133876
 H    -2.485663     0.281504    -2.981586
 C    -1.979180     2.378804    -2.800191
 H    -1.127658     3.060857    -2.964524
 H    -2.799732     2.740010    -3.451959
 H    -2.311920     2.527650    -1.759229
Rh    -0.059413     0.456257    -1.726455
 C    -3.022636     0.895752     0.422119
 C    -2.560719    -1.691717    -0.931865
 C    -1.044201    -1.040900     1.348345
 C     2.195431    -0.844374     0.854916
 C     3.378636     0.821556    -1.099318
 C     1.574485     2.107611     0.725919
 P     1.749226     0.559524    -0.265203
 P    -1.684059    -0.238157    -0.186109
 C     0.977923    -0.050658    -3.143719
 O     1.581795    -0.572894    -3.982483
 C    -2.815563     1.700302     1.561204
 O    -1.622521     1.564649     2.185746
 C    -1.413028     2.169674     3.430290
 H    -0.422146     1.839936     3.765716
 H    -1.414811     3.270898     3.359043
 H    -2.171136     1.853031     4.167174
 C    -4.221883     1.104151    -0.292155
 O    -4.387793     0.383798    -1.416400
 C    -5.446680     0.670756    -2.284719
 H    -5.303264     0.033739    -3.166827
 H    -5.433713     1.727201    -2.602105
 H    -6.426601     0.439231    -1.831896
 C    -5.188348     2.017924     0.146792
 H    -6.113377     2.154616    -0.411165
 C    -3.778287     2.609256     2.013380
 H    -3.599629     3.212844     2.901855
 C    -4.960423     2.756245     1.299964
 H    -5.713697     3.469074     1.643009
 H    -2.973708    -1.345877    -1.885947
 H    -3.412561    -1.980621    -0.297430
 C    -1.601254    -2.848623    -1.183845
 H    -0.665552    -2.431976    -1.599923
 H    -1.329755    -3.347839    -0.236253
 C    -2.150898    -3.904618    -2.145187
 H    -2.424874    -3.382837    -3.081193
 C    -1.074899    -4.929367    -2.483455
 H    -0.200655    -4.448168    -2.948025
 H    -1.449003    -5.693174    -3.183090
 H    -0.730215    -5.451868    -1.574547
 C    -3.401722    -4.584253    -1.599340
 H    -3.783161    -5.343555    -2.300034
 H    -4.213669    -3.864599    -1.416003
 H    -3.183539    -5.092075    -0.644058
 H    -0.386117    -0.325624     1.853341
 H    -0.387493    -1.832071     0.958069
 C    -2.065914    -1.600067     2.322300
 H    -2.673284    -0.771429     2.721434
 H    -2.774988    -2.268913     1.802554
 C    -1.440417    -2.371003     3.489029
 H    -0.640635    -1.733416     3.913638
 C    -2.472219    -2.625460     4.581367
 H    -2.904425    -1.683990     4.955837
 H    -2.032692    -3.161152     5.437551
 H    -3.303142    -3.240461     4.196983
 C    -0.800430    -3.675918     3.029137
 H    -0.326910    -4.207511     3.869479
 H    -0.022651    -3.509077     2.270272
 H    -1.561660    -4.346882     2.595857
 C     2.241341    -0.835433     2.260348
 O     1.946997     0.332299     2.876996
 C     2.064721     0.423450     4.267737
 H     1.858583     1.469488     4.530272
 H     1.337773    -0.225925     4.786840
 H     3.081417     0.167215     4.612164
 C     2.453730    -2.072151     0.205469
 O     2.395398    -2.039453    -1.136743
 C     2.532732    -3.215782    -1.886093
 H     2.364714    -2.927680    -2.931153
 H     1.784011    -3.970237    -1.592743
 H     3.543652    -3.646706    -1.782114
 C     2.753988    -3.237255     0.921230
 H     2.953101    -4.174012     0.402730
 C     2.548872    -1.994272     2.985651
 H     2.580155    -1.979088     4.073845
 C     2.803999    -3.180575     2.308334
 H     3.038797    -4.083301     2.876808
 H     3.223077     1.638766    -1.821853
 H     3.534500    -0.086441    -1.696731
 C     4.559452     1.102977    -0.184134
 H     4.455667     2.112500     0.249321
 H     4.543550     0.401906     0.670621
 C     5.926263     0.997063    -0.868443
 H     5.896071     1.626099    -1.778115
 C     7.021861     1.539425     0.042135
 H     6.834113     2.588962     0.318252
 H     8.010547     1.489327    -0.440281
 H     7.077546     0.954387     0.975702
 C     6.237818    -0.434228    -1.294031
 H     7.213955    -0.496195    -1.799641
 H     5.481918    -0.835811    -1.985247
 H     6.272074    -1.100173    -0.415052
 H     2.383817     2.220836     1.459687
 H     0.632773     2.004654     1.283126
 C     1.517919     3.300305    -0.228280
 H     2.537065     3.519895    -0.588490
 H     0.929892     3.029509    -1.127359
 C     0.920191     4.570916     0.382923
 H     1.353881     4.692835     1.394407
 C     1.299824     5.795181    -0.441837
 H     2.392070     5.927229    -0.492971
 H     0.866847     6.715886    -0.020081
 H     0.926827     5.695941    -1.474873
 C    -0.594164     4.460678     0.518102
 H    -1.017286     5.324051     1.055411
 H    -0.891580     3.547116     1.048875
 H    -1.067625     4.418589    -0.475940
