 100
scf done:    -2910.903873
 C     0.651882    -3.509683     0.590067
 H     0.672144    -4.375995    -0.081567
 H     1.664417    -3.349252     0.981634
 C    -0.418819    -3.580527     1.660220
 H    -0.940993    -4.549116     1.698654
 H    -0.041412    -3.333365     2.663532
 H    -1.252338    -2.836869     1.474449
Rh    -0.323903    -1.843171    -0.211608
 C     1.385046    -0.046045     2.392350
 O     2.848796    -1.049757     0.502501
 O     1.334304     0.923404    -0.144433
 C    -1.837384     0.674197    -2.245476
 O    -3.379832    -0.615407    -0.531792
 O    -1.706430     1.100423     0.421439
 P    -1.773508    -0.178425    -0.652038
 P     1.267109    -0.551086     0.651823
 C    -0.521887    -2.695138    -1.875563
 O    -0.485795    -3.104508    -2.949688
 C     0.186094     0.011762     3.110932
 H    -0.745067    -0.300931     2.630903
 C     2.582573     0.349161     2.993912
 H     3.510562     0.293267     2.420367
 C     0.195773     0.478898     4.421735
 H    -0.735098     0.526757     4.991820
 C     2.602075     0.829730     4.306619
 C     3.888768     1.302004     4.918410
 H     4.687510     0.554213     4.798764
 H     4.234829     2.225643     4.426141
 H     3.775580     1.513201     5.990995
 C     1.392719     0.886756     5.009319
 H     1.390510     1.257275     6.038401
 C     3.344133    -1.693837    -0.596554
 C     4.364074    -2.621191    -0.385311
 H     4.705673    -2.801533     0.635737
 C     2.892082    -1.442804    -1.892339
 H     2.095664    -0.719023    -2.063012
 C     4.921329    -3.295724    -1.465953
 H     5.721184    -4.019710    -1.286440
 C     3.454960    -2.135527    -2.962013
 H     3.083119    -1.937888    -3.971084
 C     4.473626    -3.074355    -2.774826
 C     5.047040    -3.842650    -3.930350
 H     6.118447    -4.047972    -3.787866
 H     4.927680    -3.295959    -4.876897
 H     4.541373    -4.815731    -4.049074
 C     2.185112     1.933681     0.224951
 C     3.466011     2.001362    -0.319604
 H     3.788993     1.233659    -1.025553
 C     1.758109     2.896583     1.139229
 H     0.758708     2.813542     1.569661
 C     4.316041     3.038775     0.056462
 H     5.322066     3.083739    -0.369956
 C     2.619467     3.926951     1.502540
 H     2.279543     4.674664     2.224546
 C     3.912221     4.018664     0.971123
 C     4.824743     5.149598     1.349368
 H     5.882333     4.866241     1.247327
 H     4.656444     5.473993     2.386900
 H     4.657661     6.027789     0.703119
 C    -3.031145     1.053782    -2.865945
 H    -3.987683     0.790895    -2.411991
 C    -0.607299     1.006991    -2.818461
 H     0.312102     0.716268    -2.303376
 C    -2.973039     1.773678    -4.055441
 H    -3.897892     2.081728    -4.549047
 C    -0.539771     1.733501    -4.010384
 C     0.790568     2.068919    -4.619380
 H     1.536290     2.300917    -3.844410
 H     1.180985     1.218179    -5.202515
 H     0.719937     2.929941    -5.299231
 C    -1.742441     2.112189    -4.617466
 H    -1.714283     2.684303    -5.549249
 C    -3.700530    -1.562177     0.410538
 C    -4.067342    -2.839211    -0.009654
 H    -4.095941    -3.054693    -1.079080
 C    -3.641863    -1.263693     1.771759
 H    -3.346312    -0.262374     2.090106
 C    -4.372856    -3.812523     0.936006
 H    -4.655479    -4.813243     0.597722
 C    -3.946972    -2.251727     2.706017
 H    -3.893640    -2.011447     3.771402
 C    -4.310277    -3.542675     2.309464
 C    -4.588298    -4.617597     3.319689
 H    -5.403587    -5.279422     2.992046
 H    -4.864097    -4.193307     4.295619
 H    -3.698052    -5.249895     3.475634
 C    -2.323996     2.302624     0.170340
 C    -3.675472     2.481209     0.453794
 H    -4.256396     1.650867     0.857666
 C    -1.576568     3.348344    -0.371422
 H    -0.523804     3.181868    -0.603202
 C    -4.272706     3.714299     0.196731
 H    -5.335221     3.847527     0.418346
 C    -2.187911     4.571077    -0.621944
 H    -1.595504     5.383203    -1.052718
 C    -3.545494     4.779290    -0.343592
 C    -4.187854     6.110451    -0.607544
 H    -5.283098     6.050487    -0.536946
 H    -3.932363     6.487500    -1.609772
 H    -3.849323     6.867812     0.118755
