 110
scf done:    -3290.106045
 C     1.521622    -2.014801    -2.710699
 H     1.495624    -1.944758    -3.810210
 H     2.533139    -1.676945    -2.434135
 C     1.321223    -3.459501    -2.272005
 H     0.349749    -3.860152    -2.605484
 H     2.102827    -4.130336    -2.677573
 H     1.355069    -3.566333    -1.174603
Rh    -0.016261    -0.780414    -1.874598
 C     2.506420    -1.488425     0.419562
 O     2.777248     0.618335    -1.436588
 O     1.466261     1.045882     0.670856
 C    -1.744645     1.884069    -0.054714
 O    -3.091577     0.283046    -1.829912
 O    -2.315225    -0.614735     0.468176
 P    -1.747077     0.231591    -0.845294
 P     1.673123    -0.137578    -0.491177
 C    -0.954205    -1.160064    -3.444514
 O    -1.462941    -1.346813    -4.454059
 C     1.697823    -2.098395     1.400258
 O     0.504007    -1.516768     1.586373
 C    -0.258345    -1.824491     2.728302
 H    -1.099362    -1.123213     2.725099
 H    -0.649905    -2.853398     2.681317
 H     0.340031    -1.679007     3.642815
 C     3.765009    -2.051612     0.140235
 O     4.499992    -1.461555    -0.813776
 C     5.777865    -1.949837    -1.113553
 H     6.186809    -1.281552    -1.880862
 H     5.736827    -2.979119    -1.508646
 H     6.439794    -1.924707    -0.231121
 C     4.208026    -3.174431     0.853197
 H     5.181818    -3.614238     0.644393
 C     2.137076    -3.212983     2.118521
 H     1.506772    -3.669520     2.879973
 C     3.392286    -3.735528     1.829678
 H     3.746032    -4.611732     2.378342
 C     3.964853     1.253381    -1.233736
 C     4.872838     1.198537    -2.295681
 H     4.592838     0.629183    -3.183989
 C     4.281309     1.991276    -0.095627
 H     3.568010     2.082444     0.720034
 C     6.094025     1.852071    -2.203294
 H     6.792206     1.798220    -3.044033
 C     5.518434     2.634133    -0.017682
 H     5.754907     3.205261     0.884541
 C     6.449250     2.577642    -1.056256
 C     7.776765     3.273138    -0.964640
 H     8.611903     2.558797    -1.046659
 H     7.885754     3.805876    -0.009501
 H     7.902247     4.008765    -1.775281
 C     1.575442     1.023486     2.030594
 C     0.499666     1.521344     2.769547
 H    -0.385261     1.866122     2.235639
 C     2.722514     0.584075     2.693185
 H     3.574459     0.205279     2.129408
 C     0.567716     1.559399     4.155757
 H    -0.285913     1.951098     4.716737
 C     2.767215     0.618451     4.087544
 H     3.667829     0.260100     4.593810
 C     1.698944     1.101752     4.846735
 C     1.761597     1.155573     6.346052
 H     0.855448     0.728322     6.803197
 H     1.844549     2.194390     6.706219
 H     2.628422     0.601230     6.732846
 C    -2.628963     2.306213     0.967835
 O    -3.605019     1.468279     1.335270
 C    -4.613072     1.904414     2.201292
 H    -5.344172     1.088029     2.253320
 H    -4.226400     2.109177     3.215273
 H    -5.118578     2.804393     1.812717
 C    -0.766679     2.799860    -0.507831
 O    -0.032404     2.411144    -1.554840
 C     1.043172     3.194709    -2.001606
 H     1.520317     2.620688    -2.803794
 H     1.778874     3.362175    -1.198457
 H     0.696367     4.165503    -2.395076
 C    -0.604570     4.050572     0.102149
 H     0.172523     4.735070    -0.232848
 C    -2.475190     3.566507     1.563488
 H    -3.146175     3.887193     2.358515
 C    -1.458763     4.411786     1.134216
 H    -1.337929     5.386773     1.612602
 C    -4.301955     0.818003    -1.484377
 C    -4.548211     2.174133    -1.683549
 H    -3.761957     2.801006    -2.107293
 C    -5.295916    -0.003888    -0.954239
 H    -5.083892    -1.064727    -0.808382
 C    -5.784484     2.708116    -1.325829
 H    -5.968073     3.775646    -1.477302
 C    -6.527031     0.542553    -0.609123
 H    -7.301581    -0.108260    -0.192500
 C    -6.794406     1.907721    -0.781077
 C    -8.135238     2.481755    -0.422681
 H    -8.879284     2.279847    -1.211420
 H    -8.085425     3.572452    -0.292060
 H    -8.526821     2.044532     0.508482
 C    -2.558266    -1.956578     0.522031
 C    -3.611660    -2.364243     1.342135
 H    -4.207002    -1.598656     1.843192
 C    -1.772803    -2.913655    -0.120733
 H    -0.938157    -2.583002    -0.755667
 C    -3.870618    -3.720868     1.518894
 H    -4.695365    -4.026239     2.169372
 C    -2.048787    -4.264874     0.062584
 H    -1.417842    -5.000553    -0.444731
 C    -3.098071    -4.699344     0.882133
 C    -3.400886    -6.161115     1.044439
 H    -4.040009    -6.528435     0.223770
 H    -3.931290    -6.362329     1.986671
 H    -2.482407    -6.766677     1.033798
