 104
scf done:    -2539.279160
 C    -1.217251     1.225288    -3.055258
 H    -0.648228     1.233326    -3.998405
 H    -2.171807     0.734505    -3.295681
 C    -1.450399     2.659084    -2.601986
 H    -1.981166     3.248389    -3.373518
 H    -2.048698     2.721143    -1.678582
 H    -0.504644     3.190114    -2.405644
Rh    -0.073750     0.237414    -1.575179
 O    -2.457526     1.658561     0.585556
 C    -3.498262    -0.006946    -1.105273
 C    -1.925221    -0.979698     1.256060
 O     1.672778    -0.869498     1.374696
 C     3.223769    -0.816458    -0.908295
 C     2.122558     1.580399     0.549382
 P     1.700641    -0.078353    -0.131351
 P    -1.922114     0.227940    -0.163216
 C     0.672513    -0.733608    -2.944833
 O     1.013625    -1.488261    -3.748835
 C    -1.744369     2.495665     1.372458
 C    -2.019298     3.864296     1.258241
 H    -2.739789     4.186968     0.504579
 C    -0.815725     2.058738     2.324436
 H    -0.576485     0.998964     2.416434
 C    -1.397281     4.776199     2.104080
 H    -1.625342     5.840286     2.005768
 C    -0.204096     2.982741     3.172305
 H     0.507886     2.624888     3.920113
 C    -0.489995     4.341509     3.072488
 H    -0.007228     5.058288     3.739777
 H    -3.475756     0.911880    -1.720035
 C    -4.806169     0.027223    -0.315665
 H    -4.804238     0.868408     0.392752
 H    -4.908445    -0.898668     0.275614
 C    -5.990171     0.132891    -1.274408
 H    -6.935377     0.136557    -0.707252
 H    -5.939327     1.103635    -1.799874
 C    -5.989042    -0.997056    -2.299106
 H    -6.823017    -0.872583    -3.008865
 H    -6.167352    -1.955167    -1.777242
 C    -4.660854    -1.079656    -3.045253
 H    -4.532034    -0.177162    -3.669956
 H    -4.661513    -1.937488    -3.736978
 C    -3.484639    -1.188459    -2.079708
 H    -3.568789    -2.134875    -1.523176
 H    -2.527066    -1.228278    -2.620550
 H    -0.883816    -0.932182     1.623245
 C    -2.161589    -2.418687     0.786734
 H    -1.497185    -2.665263    -0.056104
 H    -3.196199    -2.508956     0.417108
 C    -1.963776    -3.405331     1.932732
 H    -2.160728    -4.430270     1.579466
 H    -0.909050    -3.385541     2.248371
 C    -2.849652    -3.067936     3.125218
 H    -2.651369    -3.763675     3.956625
 H    -3.910937    -3.207254     2.848754
 C    -2.639103    -1.626542     3.573278
 H    -1.608236    -1.509921     3.954852
 H    -3.311610    -1.377818     4.410316
 C    -2.860084    -0.647896     2.423683
 H    -3.906673    -0.715172     2.090215
 H    -2.716818     0.384856     2.769684
 C     1.546355    -2.212178     1.514892
 C     1.760927    -2.733339     2.796250
 H     1.999689    -2.040648     3.605484
 C     1.231382    -3.073679     0.458306
 H     1.022484    -2.667733    -0.533850
 C     1.684687    -4.105930     3.009910
 H     1.859630    -4.502563     4.012923
 C     1.162162    -4.447330     0.686305
 H     0.917592    -5.111238    -0.146293
 C     1.392509    -4.973019     1.955533
 H     1.338319    -6.050120     2.125245
 H     2.821294    -1.698511    -1.439220
 C     4.328418    -1.319955     0.022509
 H     3.920158    -1.993482     0.789172
 H     4.784654    -0.473131     0.558061
 C     5.401130    -2.046557    -0.785911
 H     6.205599    -2.390458    -0.115756
 H     4.957933    -2.956151    -1.230038
 C     5.970656    -1.168611    -1.894912
 H     6.708169    -1.731327    -2.489841
 H     6.519335    -0.323616    -1.440042
 C     4.869389    -0.618790    -2.794788
 H     4.393225    -1.446927    -3.349360
 H     5.292782     0.059910    -3.552701
 C     3.801587     0.108872    -1.984620
 H     4.253513     0.992721    -1.503240
 H     3.004034     0.482484    -2.646102
 H     1.313390     1.699384     1.289025
 C     1.912112     2.679944    -0.494821
 H     0.926722     2.546647    -0.975712
 H     2.663521     2.592155    -1.296915
 C     2.004457     4.059427     0.147052
 H     1.897466     4.838562    -0.624804
 H     1.156851     4.187227     0.841038
 C     3.315227     4.236676     0.906464
 H     3.342577     5.223237     1.397086
 H     4.157127     4.223170     0.189897
 C     3.519486     3.129092     1.935317
 H     2.739082     3.209581     2.712075
 H     4.486914     3.252996     2.448867
 C     3.444369     1.745110     1.293917
 H     4.288055     1.632233     0.592204
 H     3.550465     0.956868     2.054926
