  94
scf done:    -3228.800581
 C    -1.138284    -3.188314    -1.141312
 H    -1.307375    -4.070285    -0.501401
 H    -2.126681    -2.751659    -1.333219
 C    -0.485547    -3.605446    -2.450911
 H     0.459685    -4.149451    -2.293596
 H    -1.140476    -4.271092    -3.046988
 H    -0.253620    -2.735480    -3.089418
Rh     0.106857    -1.735861    -0.258104
 C    -2.145215     1.045742    -1.210333
 C    -3.381936    -1.151727     0.131523
 C    -1.792980     0.496177     1.665566
 C     2.622054     0.359571     1.591076
 C     3.431633    -1.015598    -0.771280
 C     1.806598     1.268836    -0.895269
 P     1.934274    -0.299480     0.033163
 P    -1.754350    -0.290396     0.004405
 C     1.081570    -3.191571     0.297135
 O     1.585937    -4.107808     0.780496
 C    -2.119706     2.436051    -0.983081
 O    -1.695704     2.860892     0.216977
 C    -1.928090     4.191535     0.612813
 H    -1.654532     4.242202     1.674585
 H    -1.302282     4.893101     0.035760
 H    -2.992450     4.459048     0.504106
 C    -2.475319     0.600462    -2.509150
 O    -2.403499    -0.730471    -2.686044
 C    -2.887464    -1.310754    -3.867687
 H    -2.790109    -2.394851    -3.739140
 H    -2.296199    -0.998655    -4.745195
 H    -3.947906    -1.056198    -4.033129
 C    -2.856165     1.487893    -3.519320
 H    -3.127640     1.125829    -4.509945
 C    -2.506939     3.332980    -1.991060
 H    -2.475595     4.405926    -1.810065
 C    -2.875822     2.852024    -3.238697
 H    -3.164493     3.558162    -4.020489
 C    -4.568490    -0.690893    -0.443046
 H    -4.565043     0.209952    -1.060951
 C    -3.418093    -2.301628     0.929964
 H    -2.487147    -2.673163     1.368256
 C    -5.771324    -1.363964    -0.232549
 H    -6.706321    -1.017132    -0.676478
 C    -4.610422    -2.979623     1.154139
 H    -4.651216    -3.878960     1.771135
 C    -5.775533    -2.500281     0.565100
 F    -6.921545    -3.147616     0.769405
 C    -2.924716     1.171408     2.142432
 H    -3.813968     1.259490     1.513705
 C    -0.687042     0.357802     2.500899
 H     0.161391    -0.225958     2.144262
 C    -2.928884     1.738017     3.410039
 H    -3.799183     2.270506     3.798269
 C    -0.669865     0.926145     3.774871
 H     0.202406     0.838099     4.425481
 C    -1.791927     1.615992     4.207698
 F    -1.794412     2.167299     5.420649
 C     3.215456     1.625836     1.656214
 O     3.443862     2.386598     0.563568
 C     0.850640     4.231416    -1.319704
 H     2.027708     4.385745     0.382424
 H     1.262264     6.727543    -1.551175
 H     1.621978     7.402859    -1.523381
 C     2.580952    -0.421712     2.767305
 O     2.067412    -1.651429     2.620181
 C     1.908538    -2.489265     3.734517
 H     1.477547    -3.422171     3.353071
 H     1.225252    -2.043572     4.477326
 H     2.877093    -2.709977     4.213776
 C     3.056596     0.079884     3.980717
 H     3.014521    -0.521728     4.887752
 C     3.701257     2.133708     2.868136
 H     4.153888     3.125860     2.871871
 C     3.611691     1.360279     4.014353
 H     3.989493     1.753416     4.961060
 C     3.241329    -1.854030    -1.877177
 H     2.222951    -2.100205    -2.192908
 C     4.733925    -0.728286    -0.350046
 H     4.900791    -0.081551     0.513609
 C     4.327729    -2.393817    -2.557065
 H     4.195991    -3.053075    -3.416815
 C     5.829899    -1.270410    -1.016370
 H     6.852871    -1.064759    -0.696181
 C     5.611110    -2.093845    -2.114061
 F     6.656105    -2.613220    -2.753578
 C     2.514760     2.497220    -0.492080
 H     3.104838     2.887005    -1.341301
 C     0.973858     1.290221    -1.981821
 H     0.464355     0.353819    -2.234122
 C     1.470241     3.605785    -0.170306
 H     0.692479     3.249452     0.531595
 C     0.639597     2.403843    -2.790490
 H    -0.091788     2.214138    -3.586885
 C     0.918589     3.764590    -2.594763
 F     0.722683     4.573970    -3.642813
