  90
scf done:    -2380.062645
 C     2.062765    -3.120825    -0.195898
 H     2.034017    -3.789548    -1.072941
 H     2.976840    -2.516340    -0.300961
 C     2.157346    -3.949826     1.078672
 H     1.323105    -4.663632     1.169687
 H     3.095698    -4.536974     1.128127
 H     2.128570    -3.320641     1.985209
Rh     0.400387    -1.840693    -0.036943
 C     1.874049     1.397285     0.154033
 C     3.256989    -0.335260    -1.700621
 C     0.500079     0.622815    -2.425749
 C    -2.277883     0.643396    -0.113710
 C    -2.764005    -1.712886     1.496321
 C    -0.677158     0.253919     2.426593
 P    -1.363357    -0.602271     0.911088
 P     1.543081    -0.013284    -1.006696
 C    -0.642746    -3.299540    -0.375293
 O    -1.334963    -4.124126    -0.806290
 C     1.347039     2.702505     0.115438
 O     0.563485     3.024516    -0.933327
 C     0.268777     4.361778    -1.207966
 H    -0.277480     4.368418    -2.159892
 H    -0.373735     4.816971    -0.436465
 H     1.186068     4.968028    -1.307396
 C     2.685289     1.068403     1.265015
 O     3.175396    -0.186829     1.266239
 C     3.980283    -0.635794     2.321077
 H     4.221377    -1.682299     2.097290
 H     3.447190    -0.591430     3.285545
 H     4.914065    -0.052131     2.394705
 C     2.958126     1.982547     2.286363
 H     3.585457     1.703834     3.131789
 C     1.619710     3.628993     1.132328
 H     1.203088     4.634298     1.086123
 C     2.416279     3.260488     2.207620
 H     2.623334     3.984368     2.999229
 H     3.722717    -0.878105    -0.865832
 C     3.197122    -1.291952    -2.886055
 H     4.201032    -1.698820    -3.088305
 H     2.524535    -2.138404    -2.686911
 H     2.857930    -0.789697    -3.804022
 C     4.122482     0.887687    -1.977100
 H     4.174998     1.558801    -1.107396
 H     5.150805     0.565358    -2.211960
 H     3.761372     1.474379    -2.832709
 H    -0.304003     1.150844    -1.893622
 C     1.154796     1.592554    -3.402590
 H     0.377745     2.040090    -4.044832
 H     1.684246     2.410032    -2.900024
 H     1.862536     1.078264    -4.069277
 C    -0.141490    -0.543706    -3.174084
 H    -0.580425    -1.263207    -2.468269
 H    -0.931013    -0.154026    -3.838371
 H     0.582773    -1.083923    -3.800092
 C    -2.351076     2.036486     0.076392
 O    -1.740363     2.553487     1.165062
 C    -2.127618     3.803104     1.657802
 H    -1.616741     3.927738     2.621512
 H    -1.824895     4.633147     0.996825
 H    -3.219161     3.857688     1.812424
 C    -2.908835     0.120882    -1.269037
 O    -2.843342    -1.214328    -1.407493
 C    -3.421526    -1.852475    -2.513293
 H    -3.188347    -2.918293    -2.400166
 H    -2.990564    -1.489553    -3.461018
 H    -4.516064    -1.712090    -2.533167
 C    -3.567241     0.940373    -2.190722
 H    -4.042614     0.513885    -3.072818
 C    -3.024275     2.862966    -0.834234
 H    -3.076053     3.938045    -0.665682
 C    -3.617979     2.310368    -1.960702
 H    -4.136198     2.958486    -2.671291
 H    -2.950158    -2.303295     0.588221
 C    -2.295094    -2.682012     2.575562
 H    -3.035838    -3.488678     2.695792
 H    -1.333535    -3.146497     2.308855
 H    -2.184559    -2.192273     3.554488
 C    -4.068779    -1.019036     1.865789
 H    -4.410288    -0.337522     1.073125
 H    -4.857620    -1.774192     2.018943
 H    -3.987477    -0.439624     2.795957
 H    -0.174423     1.129382     1.991224
 C    -1.661077     0.735981     3.485044
 H    -1.134944     1.381038     4.208848
 H    -2.488367     1.315614     3.058836
 H    -2.086336    -0.103664     4.054260
 C     0.403595    -0.628459     3.051453
 H     1.094793    -1.017539     2.286821
 H     0.983591    -0.036262     3.778533
 H    -0.019655    -1.491872     3.583383
