  84
scf done:    -2825.584845
 C    -1.729391    -2.972371    -2.073900
 H    -1.427513    -4.029913    -2.050082
 H    -2.683094    -2.913265    -1.525659
 C    -1.901716    -2.489486    -3.505050
 H    -2.649458    -3.093679    -4.052007
 H    -2.248552    -1.444400    -3.543174
 H    -0.961803    -2.552925    -4.078141
Rh    -0.220178    -1.694995    -1.303891
 O    -1.618241     1.048334    -0.003552
 O    -3.303673    -0.366228    -1.331438
 O    -2.525201    -1.165562     0.899491
 O     1.493449     0.075925     0.916982
 O     2.936923    -0.962420    -0.921073
 O     1.560341     1.162658    -1.372183
 P     1.437971    -0.322051    -0.679053
 P    -1.915749    -0.502059    -0.489443
 C     0.815935    -3.240183    -1.073018
 O     1.366292    -4.197000    -0.764550
 C    -2.533323     1.995964     0.397404
 C    -2.538446     3.205663    -0.295989
 H    -1.841116     3.341249    -1.124742
 C    -3.401868     1.781334     1.468073
 H    -3.390972     0.827063     1.993686
 C    -3.437988     4.202813     0.072985
 H    -3.445289     5.149423    -0.472599
 C    -4.304793     2.782379     1.817230
 H    -5.000843     2.607957     2.640685
 C    -4.329091     3.992119     1.124461
 H    -5.041170     4.771001     1.405390
 C    -4.572811    -0.013533    -0.923361
 C    -5.119194     1.161133    -1.435359
 H    -4.520344     1.773231    -2.110869
 C    -5.305015    -0.831690    -0.065868
 H    -4.858709    -1.751178     0.311123
 C    -6.401301     1.541492    -1.051787
 H    -6.824451     2.470527    -1.440425
 C    -6.588123    -0.438742     0.310401
 H    -7.163353    -1.072507     0.989626
 C    -7.137869     0.747733    -0.172397
 H    -8.142343     1.050766     0.130909
 C    -1.670611    -1.774488     1.796765
 C    -0.950871    -1.003279     2.706355
 H    -1.039118     0.083835     2.682408
 C    -1.548866    -3.161541     1.775542
 H    -2.108698    -3.731924     1.032902
 C    -0.106299    -1.636317     3.615741
 H     0.469351    -1.035622     4.323200
 C    -0.700762    -3.784094     2.688455
 H    -0.596828    -4.871399     2.671533
 C     0.020399    -3.024788     3.610013
 H     0.689460    -3.515115     4.320616
 C     2.536668    -0.080437     1.791882
 C     3.151819     1.053494     2.319599
 H     2.814693     2.040755     2.000466
 C     2.944633    -1.360312     2.168365
 H     2.438587    -2.230760     1.748201
 C     4.196753     0.898348     3.228840
 H     4.683661     1.785282     3.641003
 C     3.996056    -1.500729     3.070727
 H     4.323602    -2.501869     3.360546
 C     4.626456    -0.374899     3.602778
 H     5.450663    -0.490822     4.309990
 C     4.074710    -0.336934    -1.366511
 C     5.096210    -0.029733    -0.469420
 H     4.975125    -0.268898     0.587331
 C     4.209042    -0.058665    -2.726910
 H     3.396898    -0.320920    -3.407056
 C     6.251836     0.587965    -0.942914
 H     7.050846     0.835536    -0.240230
 C     5.368664     0.560768    -3.187249
 H     5.472437     0.785807    -4.251268
 C     6.390777     0.891940    -2.296973
 H     7.298016     1.379503    -2.660350
 C     1.954174     2.337321    -0.765526
 C     3.191384     2.895646    -1.079744
 H     3.851529     2.386952    -1.782361
 C     1.088810     2.971539     0.125416
 H     0.134227     2.501569     0.355542
 C     3.565675     4.097593    -0.481045
 H     4.537819     4.533139    -0.723540
 C     1.473980     4.172969     0.715177
 H     0.794405     4.666928     1.413748
 C     2.714704     4.738383     0.418779
 H     3.015790     5.679214     0.884892
