  76
scf done:    -2072.675613
 C     1.389510    -1.291790    -2.934276
 H     1.152764    -1.062683    -3.984534
 H     2.434304    -0.985948    -2.799604
 C     1.244392    -2.787018    -2.689834
 H     1.911746    -3.380706    -3.343182
 H     1.491770    -3.070758    -1.651756
 H     0.217139    -3.138246    -2.879518
Rh     0.035134    -0.428215    -1.556761
 O     1.644331    -0.037476     1.501273
 C     3.515410    -0.521581    -0.466125
 C     1.948684     2.023488    -0.055569
 O    -1.747425     0.781601     1.257595
 C    -3.367474     0.311729    -0.928389
 C    -2.057016    -1.773659     0.819690
 P    -1.760964    -0.205136    -0.118127
 P     1.801481     0.181024    -0.175183
 C    -0.933130     0.025299    -3.053550
 O    -1.444039     0.470518    -3.986639
 C     1.202191    -1.177826     2.072165
 C     1.305596    -2.430644     1.457595
 H     1.753925    -2.518992     0.466820
 C     0.623020    -1.073998     3.342368
 H     0.554633    -0.086194     3.800077
 C     0.814163    -3.563254     2.106111
 H     0.893204    -4.534901     1.612823
 C     0.136514    -2.210189     3.978663
 H    -0.322584    -2.117145     4.965836
 C     0.223178    -3.461634     3.363134
 H    -0.163233    -4.351057     3.864917
 H     3.302348    -1.519722    -0.887911
 C     4.292233     0.259076    -1.525602
 H     5.167767    -0.327574    -1.845801
 H     3.694184     0.476226    -2.421275
 H     4.664257     1.214187    -1.128883
 C     4.344647    -0.710109     0.799920
 H     3.848323    -1.357347     1.535306
 H     5.305976    -1.180477     0.536380
 H     4.565863     0.247046     1.291624
 H     0.983675     2.238207     0.426647
 C     3.035199     2.545834     0.874821
 H     2.868570     3.620747     1.050060
 H     3.003693     2.040091     1.849679
 H     4.044726     2.434956     0.452350
 C     1.925024     2.709674    -1.415376
 H     1.126569     2.293744    -2.048847
 H     1.732036     3.784862    -1.276074
 H     2.877777     2.609525    -1.954424
 C    -1.346433     2.073168     1.265035
 C    -0.886719     2.588080     2.482402
 H    -0.874977     1.928896     3.351658
 C    -1.374611     2.893318     0.131500
 H    -1.708500     2.495940    -0.827571
 C    -0.446402     3.904596     2.558731
 H    -0.080774     4.293616     3.512127
 C    -0.933613     4.213195     0.222030
 H    -0.953148     4.841845    -0.671306
 C    -0.463327     4.725499     1.428752
 H    -0.115158     5.758474     1.491769
 H    -3.032923     1.082146    -1.644436
 C    -3.955654    -0.829425    -1.753331
 H    -4.732928    -0.438465    -2.428090
 H    -3.197838    -1.326576    -2.377085
 H    -4.425407    -1.589931    -1.112504
 C    -4.396994     0.950569    -0.004742
 H    -3.983778     1.805140     0.548297
 H    -5.245225     1.318599    -0.604310
 H    -4.794996     0.236502     0.728273
 H    -1.185353    -1.746559     1.491328
 C    -3.298853    -1.815473     1.697893
 H    -3.237281    -2.687385     2.368913
 H    -3.377765    -0.915794     2.323983
 H    -4.223543    -1.918683     1.110436
 C    -1.902676    -3.004119    -0.066606
 H    -0.989315    -2.943567    -0.678776
 H    -1.827800    -3.903230     0.564608
 H    -2.755605    -3.141392    -0.746418
