  92
scf done:    -2681.928983
 C     1.876803    -2.480137    -2.337712
 H     1.639730    -2.753859    -3.378110
 H     2.746563    -1.808999    -2.400317
 C     2.222784    -3.729295    -1.539977
 H     3.106352    -4.252258    -1.953193
 H     2.457162    -3.500695    -0.487574
 H     1.391914    -4.452934    -1.528985
Rh     0.253456    -1.503319    -1.362971
 O     1.581005    -0.060620     1.352934
 C     3.558303    -0.423709    -0.445294
 C     1.627343     1.648847    -0.849320
 O    -1.233950     0.766910     0.612082
 C    -3.092943    -0.365136    -1.000232
 C    -1.926349    -1.805051     1.217475
 P    -1.503124    -0.706874    -0.174558
 P     1.770031    -0.086800    -0.322154
 C    -0.760647    -2.436501    -2.605266
 O    -1.360266    -2.990920    -3.412932
 C     2.015857     0.944363     2.176414
 C     3.279620     0.880607     2.766869
 H     3.934409     0.037609     2.546353
 C     1.163311     2.016404     2.448046
 H     0.187693     2.041538     1.965599
 C     3.689290     1.902285     3.622620
 H     4.679294     1.851603     4.082553
 C     1.581887     3.028553     3.307064
 H     0.910753     3.865633     3.513728
 C     2.846266     2.979323     3.894143
 H     3.173040     3.776577     4.565601
 C     4.107518    -1.431167     0.359726
 H     3.480235    -1.926377     1.105140
 C     4.370614     0.182924    -1.406665
 H     3.960204     0.957616    -2.058350
 C     5.439355    -1.799556     0.220915
 H     5.849204    -2.585113     0.862152
 C     5.705258    -0.195037    -1.542678
 H     6.326149     0.294410    -2.297953
 C     6.264287    -1.188226    -0.733815
 C     7.697626    -1.604862    -0.883583
 H     7.770947    -2.655889    -1.206297
 H     8.222383    -0.988005    -1.626162
 H     8.239451    -1.522524     0.071714
 C     2.490569     2.656698    -0.396663
 H     3.320820     2.413448     0.269712
 C     0.589510     1.991307    -1.722531
 H    -0.067464     1.195081    -2.086097
 C     2.295771     3.975294    -0.792601
 H     2.972815     4.750272    -0.423248
 C     0.407770     3.310901    -2.122002
 H    -0.403617     3.557952    -2.812565
 C     1.248742     4.327636    -1.654064
 C     1.020722     5.757918    -2.043500
 H     1.961977     6.325766    -2.068058
 H     0.542394     5.837133    -3.030309
 H     0.357424     6.255940    -1.316348
 C    -2.217377     1.573619     1.108470
 C    -2.693222     1.398110     2.409651
 H    -2.291442     0.589292     3.021028
 C    -2.709273     2.609273     0.311041
 H    -2.313293     2.726060    -0.698807
 C    -3.676977     2.254880     2.901108
 H    -4.049695     2.115970     3.918905
 C    -3.691474     3.458433     0.811701
 H    -4.078945     4.263745     0.182993
 C    -4.182618     3.282363     2.105784
 H    -4.954974     3.949048     2.495804
 C    -3.071857    -0.054279    -2.363979
 H    -2.128422    -0.123667    -2.912503
 C    -4.306558    -0.257800    -0.305756
 H    -4.345329    -0.472089     0.764201
 C    -4.233365     0.345333    -3.019061
 H    -4.195296     0.582176    -4.085771
 C    -5.462701     0.139028    -0.966247
 H    -6.397642     0.223525    -0.405515
 C    -5.448601     0.446211    -2.333508
 C    -6.708243     0.847215    -3.041985
 H    -7.306057    -0.040854    -3.306893
 H    -7.340383     1.486029    -2.407625
 H    -6.493536     1.388892    -3.973945
 C    -1.132580    -1.750261     2.372795
 H    -0.338231    -1.002931     2.442377
 C    -2.893683    -2.808351     1.109675
 H    -3.501942    -2.889869     0.205437
 C    -1.338333    -2.654045     3.407526
 H    -0.712841    -2.593623     4.302892
 C    -3.086933    -3.713967     2.151301
 H    -3.850525    -4.490329     2.051603
 C    -2.322155    -3.649514     3.319746
 C    -2.539768    -4.611492     4.450340
 H    -1.593222    -5.077134     4.765751
 H    -2.955879    -4.098022     5.332581
 H    -3.236919    -5.413465     4.170355
