 108
scf done:    -2767.247412
 C    -1.363885     1.891871    -2.919122
 H    -1.359670     1.609750    -3.985015
 H    -2.411112     1.759907    -2.598224
 C    -0.973149     3.355162    -2.766183
 H    -1.670720     4.030171    -3.297545
 H    -0.964440     3.673033    -1.711137
 H     0.033487     3.548852    -3.172331
Rh    -0.012617     0.703735    -1.779731
 C    -2.374294     2.176324     0.218799
 C    -3.287010    -0.441258    -0.980988
 C    -1.517655    -0.378779     1.300591
 C     1.401486    -1.956028     0.158359
 C     3.282313    -0.339765    -1.315038
 C     2.050899     0.776485     1.075374
 P     1.638950    -0.219157    -0.426174
 P    -1.823920     0.486565    -0.308614
 C     0.968429     0.600701    -3.338440
 O     1.497459     0.459608    -4.352258
 C    -1.379828     2.817493     0.974825
 H    -0.448900     2.291776     1.192358
 C    -3.547583     2.893332    -0.104393
 C    -4.698184     2.346927    -0.903305
 H    -5.192532     1.505238    -0.396877
 H    -4.383213     1.999373    -1.896888
 H    -5.455240     3.127740    -1.054735
 C    -1.513489     4.122716     1.428743
 H    -0.703826     4.579861     2.001182
 C    -3.661013     4.212270     0.361851
 H    -4.567484     4.770126     0.112066
 C    -2.670915     4.829371     1.117526
 H    -2.802243     5.860766     1.452772
 H    -4.112504    -0.305070    -0.270174
 H    -3.557775     0.059498    -1.918268
 C    -3.081102    -1.914601    -1.215194
 C    -3.453001    -2.819078    -0.213291
 H    -3.846674    -2.431972     0.728858
 C    -2.616040    -2.412570    -2.451927
 C    -2.242312    -1.494303    -3.573062
 H    -1.447439    -0.793314    -3.257386
 H    -3.097183    -0.876466    -3.894539
 H    -1.887299    -2.056664    -4.447240
 C    -3.353852    -4.195169    -0.399030
 H    -3.652768    -4.874924     0.402288
 C    -2.535375    -3.799385    -2.625522
 H    -2.187481    -4.184951    -3.588000
 C    -2.894821    -4.689418    -1.616225
 H    -2.823879    -5.766770    -1.786062
 H    -0.999745    -1.299454     0.998009
 H    -0.749741     0.227125     1.809226
 C    -2.640141    -0.696354     2.252358
 C    -3.713818     0.179067     2.447398
 H    -3.735112     1.125186     1.904543
 C    -2.598479    -1.902801     2.987424
 C    -1.461507    -2.870255     2.835984
 H    -0.491801    -2.405709     3.073051
 H    -1.380682    -3.251300     1.804591
 H    -1.589465    -3.734937     3.501388
 C    -4.751989    -0.127638     3.324356
 H    -5.579253     0.574363     3.452646
 C    -3.649682    -2.194763     3.862835
 H    -3.619639    -3.132081     4.425413
 C    -4.724513    -1.325092     4.032188
 H    -5.533320    -1.581846     4.720412
 C     0.645689    -2.695981    -0.767281
 H     0.220005    -2.165879    -1.626071
 C     1.921049    -2.612049     1.301052
 C     2.731185    -1.956824     2.384464
 H     2.143070    -1.221186     2.953249
 H     3.618847    -1.447397     1.984829
 H     3.083848    -2.713705     3.097296
 C     0.417903    -4.058922    -0.611357
 H    -0.176319    -4.595941    -1.350981
 C     1.662299    -3.982751     1.442613
 H     2.059504    -4.494815     2.323139
 C     0.932864    -4.707308     0.505902
 H     0.760726    -5.775821     0.656380
 H     3.053575    -0.936754    -2.210526
 H     3.497836     0.681174    -1.663501
 C     4.414851    -0.945633    -0.548031
 C     4.516932    -2.342300    -0.487540
 H     3.798249    -2.948077    -1.044687
 C     5.363784    -0.155563     0.138438
 C     5.389639     1.341651     0.012692
 H     4.449319     1.821820     0.319038
 H     5.568377     1.645829    -1.031802
 H     6.196227     1.770223     0.623128
 C     5.496354    -2.966965     0.277630
 H     5.546176    -4.057556     0.314808
 C     6.337802    -0.802107     0.909439
 H     7.071694    -0.193822     1.445442
 C     6.403061    -2.190944     0.995319
 H     7.174396    -2.664219     1.607579
 H     1.304162     0.493645     1.835468
 H     3.011529     0.421820     1.475443
 C     2.094775     2.278745     0.946327
 C     1.847372     2.953529    -0.252137
 H     1.565355     2.377059    -1.144543
 C     2.402692     3.027781     2.104549
 C     2.682105     2.342240     3.409539
 H     3.541858     1.656157     3.331608
 H     1.825630     1.732768     3.742683
 H     2.902838     3.069876     4.202137
 C     1.892565     4.343989    -0.322817
 H     1.678042     4.841675    -1.270841
 C     2.446546     4.422350     2.016660
 H     2.684860     5.000056     2.914189
 C     2.195488     5.083449     0.815377
 H     2.233845     6.174594     0.773583
