  92
scf done:    -2530.600339
 C     1.260107    -2.913900    -1.833346
 H     0.778036    -3.468754    -2.652865
 H     2.042104    -2.306485    -2.320984
 C     1.895516    -3.879154    -0.843019
 H     2.618944    -4.555234    -1.336557
 H     2.442613    -3.342055    -0.052931
 H     1.144269    -4.518653    -0.351541
Rh    -0.164197    -1.747975    -0.747177
 O     1.433628     1.040964     0.339676
 O     2.999915    -0.837357    -0.279326
 O     1.874252     0.463886    -2.102774
 O    -1.821313     0.956387     0.090190
 O    -3.217029    -1.175361     0.328637
 O    -1.625747    -0.622333     2.115932
 P    -1.695242    -0.655164     0.480938
 P     1.540472    -0.269690    -0.686784
 C    -1.454902    -2.782240    -1.619665
 O    -2.224061    -3.350016    -2.251043
 C     2.505799     1.813034     0.703192
 C     2.885250     1.821578     2.046398
 H     2.335114     1.201739     2.756161
 C     3.202396     2.585137    -0.229278
 H     2.894989     2.563652    -1.274682
 C     3.965553     2.599178     2.456115
 H     4.260747     2.598993     3.508020
 C     4.287814     3.352098     0.190128
 H     4.834853     3.950334    -0.542512
 C     4.675010     3.363646     1.529836
 H     5.525811     3.967972     1.851649
 C     4.254024    -0.613948    -0.919183
 H     4.499261    -1.523045    -1.494562
 H     4.168775     0.218560    -1.632929
 C     5.310544    -0.327534     0.122845
 H     4.971674     0.518598     0.741052
 H     5.396349    -1.195393     0.798855
 C     6.663139     0.000414    -0.491782
 H     6.545341     0.852985    -1.184186
 H     7.008639    -0.846245    -1.111413
 C     7.715938     0.338696     0.551166
 H     7.404794     1.206184     1.155089
 H     7.877700    -0.503182     1.243231
 H     8.684620     0.580773     0.088467
 C     0.949565     0.461991    -3.195673
 H     1.555150     0.743194    -4.070954
 H     0.571421    -0.563217    -3.342328
 C    -0.204678     1.420768    -2.996068
 H    -0.824336     1.371681    -3.909706
 H    -0.838009     1.048545    -2.173263
 C     0.203204     2.860129    -2.718593
 H     0.897910     3.205856    -3.505807
 H     0.767778     2.890952    -1.773502
 C    -0.982038     3.806459    -2.620640
 H    -1.568355     3.816493    -3.554122
 H    -1.660126     3.507030    -1.806813
 H    -0.659060     4.839160    -2.419714
 C    -2.892074     1.750694     0.393111
 C    -3.072840     2.250694     1.683140
 H    -2.358735     1.987642     2.463866
 C    -3.785329     2.082863    -0.626514
 H    -3.621080     1.672177    -1.624072
 C    -4.160693     3.080460     1.949610
 H    -4.304087     3.470506     2.960087
 C    -4.862610     2.921262    -0.351914
 H    -5.558397     3.183755    -1.152283
 C    -5.057638     3.418958     0.936863
 H    -5.906302     4.072082     1.150750
 C    -4.207735    -1.409426     1.331663
 H    -4.424593    -2.490287     1.300603
 H    -3.795827    -1.171000     2.321569
 C    -5.462677    -0.611648     1.055684
 H    -6.197231    -0.883719     1.835035
 H    -5.252969     0.461685     1.192736
 C    -6.056696    -0.848799    -0.324379
 H    -6.262370    -1.926332    -0.454721
 H    -5.296361    -0.595639    -1.080976
 C    -7.322610    -0.045209    -0.569468
 H    -8.112143    -0.306763     0.153874
 H    -7.129058     1.034416    -0.466611
 H    -7.725854    -0.219563    -1.578631
 C    -0.458041    -0.215651     2.825014
 H     0.214660     0.340262     2.152849
 H    -0.802394     0.481454     3.605954
 C     0.248067    -1.399412     3.453613
 H     0.950978    -1.011916     4.213131
 H    -0.502374    -1.991913     4.005638
 C     0.997875    -2.284283     2.468320
 H     1.820528    -1.707132     2.013502
 H     0.324974    -2.549818     1.627388
 C     1.549603    -3.551970     3.096349
 H     2.247352    -3.322763     3.918593
 H     0.742366    -4.175711     3.512994
 H     2.092121    -4.158802     2.356734
