  84
scf done:    -4290.854747
 C    -1.192278     0.881886    -3.310897
 H    -0.797093     0.690757    -4.320242
 H    -2.217500     0.483262    -3.301750
 C    -1.193100     2.376278    -3.034521
 H    -1.681492     2.945380    -3.847677
 H    -1.739573     2.625895    -2.109995
 H    -0.171395     2.784353    -2.939131
Rh     0.037455     0.042474    -1.828460
 C    -1.446871     1.235687     1.250307
 C    -3.374015     0.743089    -0.802750
 C    -2.116796    -1.466169     0.362200
 C     1.564185    -1.785983     0.871534
 C     3.432983    -0.594691    -0.941581
 C     2.074141     1.110523     0.763346
 P     1.730427    -0.367684    -0.272460
 P    -1.698155     0.209343    -0.255685
 C     0.748039    -0.993253    -3.169180
 O     1.058824    -1.776849    -3.955477
 C    -1.548633     0.773110     2.564687
 H    -1.819865    -0.263324     2.766872
 C    -1.089153     2.573885     1.031397
 H    -0.977225     2.935486     0.004639
 C    -1.285875     1.636859     3.628307
 H    -1.350451     1.264167     4.653832
 C    -0.866572     3.461662     2.086015
 C    -0.551778     4.905787     1.831721
 H    -0.406665     5.102660     0.760602
 H    -1.373164     5.551683     2.182271
 H     0.358594     5.218747     2.364809
 C    -0.953513     2.966441     3.394137
 H    -0.756379     3.635776     4.235969
 C    -4.038363    -0.079673    -1.723852
 H    -3.568045    -1.008169    -2.058669
 C    -4.001268     1.917285    -0.377782
 H    -3.514514     2.567707     0.351350
 C    -5.295130     0.258539    -2.210635
 H    -5.810494    -0.384880    -2.925312
 C    -5.259690     2.270202    -0.861555
 H    -5.749660     3.185424    -0.525582
 C    -5.899126     1.439489    -1.777872
Cl    -7.463104     1.871369    -2.381220
 C    -3.162772    -1.674691     1.271960
 H    -3.779381    -0.834378     1.600620
 C    -1.401023    -2.568182    -0.111970
 H    -0.618589    -2.400424    -0.857363
 C    -3.431185    -2.947522     1.763647
 H    -4.231452    -3.114072     2.486595
 C    -1.668202    -3.849450     0.359985
 H    -1.095504    -4.706112     0.004010
 C    -2.662171    -4.024521     1.318592
Cl    -2.942768    -5.600606     1.979570
 C     1.993973    -3.052341     0.452658
 H     2.546088    -3.164151    -0.483757
 C     0.837113    -1.676938     2.062046
 H     0.468435    -0.700419     2.380231
 C     1.714017    -4.172248     1.231282
 H     2.057409    -5.156744     0.904101
 C     0.539915    -2.795708     2.846245
 C    -0.293192    -2.662840     4.087286
 H    -0.276878    -1.635305     4.477434
 H    -1.342738    -2.923163     3.871453
 H     0.053458    -3.339107     4.882339
 C     0.994302    -4.047305     2.417382
 H     0.765750    -4.936117     3.011591
 C     3.730718    -0.162859    -2.236165
 H     2.931033     0.234477    -2.865858
 C     4.471929    -1.081428    -0.136547
 H     4.265341    -1.410226     0.884836
 C     5.030708    -0.228503    -2.732474
 H     5.260026     0.104623    -3.745732
 C     5.772307    -1.159314    -0.620276
 H     6.580650    -1.544814     0.003082
 C     6.044206    -0.732062    -1.921273
Cl     7.661607    -0.827570    -2.528455
 C     2.496491     1.084588     2.094912
 H     2.588664     0.135873     2.626685
 C     1.999888     2.342579     0.100737
 H     1.667982     2.369220    -0.942707
 C     2.807779     2.265631     2.764113
 H     3.119154     2.250175     3.809672
 C     2.341113     3.525149     0.745617
 H     2.292522     4.483043     0.225988
 C     2.729363     3.477643     2.083424
Cl     3.104736     4.950190     2.918119
