  70
scf done:    -3907.666094
 C    -0.826703    -3.504078    -0.186146
 H    -1.375383    -4.035915     0.608144
 H    -1.577758    -3.276788    -0.959091
 C     0.259960    -4.399344    -0.762844
 H     0.949524    -4.764930     0.015475
 H    -0.162061    -5.290584    -1.264677
 H     0.875804    -3.879398    -1.517287
Rh     0.125484    -1.741828     0.489472
 C    -1.109978    -0.220093    -2.532418
 C    -3.117555    -1.148576    -0.648391
 C    -1.698499     1.185461    -0.068074
 C     1.976952     0.332275     2.699041
 C     3.338996    -0.645006     0.327536
 C     1.587177     1.571236     0.107363
 P     1.692568    -0.070926     0.916033
 P    -1.397044    -0.498886    -0.734581
 C     0.546625    -2.701077     2.012555
 O     0.660047    -3.226086     3.032604
 H    -0.228327     0.438095    -2.581263
 C    -0.858197    -1.519760    -3.281598
 H    -1.734447    -2.184624    -3.245173
 H    -0.011340    -2.069240    -2.844090
 H    -1.944650     0.342344    -2.979917
 H    -0.629668    -1.322637    -4.339645
 C    -3.496830    -1.849029     0.502536
 H    -2.740171    -2.057770     1.264614
 C    -4.076689    -0.909285    -1.637065
 H    -3.817859    -0.360289    -2.544885
 C    -4.802580    -2.295980     0.671057
 H    -5.096353    -2.843248     1.568081
 C    -5.384999    -1.362069    -1.488523
 H    -6.132088    -1.181190    -2.262907
 C    -5.741273    -2.051146    -0.330658
Cl    -7.366689    -2.613509    -0.137769
 C    -1.871159     2.321698    -0.861430
 H    -1.798910     2.261149    -1.948447
 C    -1.788363     1.313049     1.324729
 H    -1.639445     0.426759     1.949733
 C    -2.110992     3.566294    -0.283027
 H    -2.206654     4.459638    -0.902172
 C    -2.041823     2.545612     1.915001
 H    -2.108685     2.647066     2.999553
 C    -2.189866     3.670131     1.102491
Cl    -2.421758     5.225567     1.829406
 H     1.989102    -0.649714     3.197395
 C     3.205123     1.141878     3.076978
 H     3.240822     2.113856     2.562704
 H     4.129331     0.599751     2.830648
 H     1.043648     0.814180     3.037356
 H     3.214621     1.338441     4.160215
 C     3.539174    -2.011966     0.099321
 H     2.705813    -2.704010     0.252571
 C     4.405868     0.236797     0.102900
 H     4.269389     1.310250     0.251418
 C     4.772447    -2.494971    -0.330343
 H     4.923682    -3.560399    -0.510394
 C     5.642892    -0.231764    -0.326719
 H     6.472579     0.454939    -0.502014
 C     5.819407    -1.599664    -0.539005
Cl     7.354981    -2.186722    -1.078036
 C     1.205050     2.729180     0.792626
 H     1.028722     2.704309     1.868644
 C     1.788702     1.652601    -1.277861
 H     2.103673     0.763767    -1.832269
 C     1.012338     3.932813     0.120468
 H     0.688319     4.824757     0.658864
 C     1.598734     2.847342    -1.964025
 H     1.750188     2.905282    -3.043244
 C     1.198743     3.981680    -1.258003
Cl     0.890081     5.457537    -2.109344
