  96
scf done:    -2982.737324
 C    -1.070830    -0.204896    -3.640118
 H    -1.258469    -1.089426    -4.258913
 H    -2.022071     0.306937    -3.450171
 C     0.019937     0.707027    -4.153154
 H     0.390530     0.432300    -5.151945
 H    -0.266263     1.767936    -4.142179
 H     0.954838     0.656129    -3.503576
Rh     0.165052    -0.578183    -1.998989
 O    -1.642824     2.157864    -1.277057
 O    -2.826841     0.031064    -0.815107
 O    -1.037827     0.844647     0.788019
 O     2.420714    -2.004580     0.105975
 O     3.317090    -0.284861    -1.439278
 O     2.091167     0.340065     0.710091
 P     1.935083    -0.618797    -0.626532
 P    -1.277682     0.613984    -0.823013
 C     0.160902    -2.435548    -2.319425
 O     0.027395    -3.576438    -2.349219
 C    -2.594627     2.913436    -0.629246
 C    -2.228265     3.670953     0.481932
 H    -1.194964     3.639009     0.828538
 C    -3.908541     2.911613    -1.094763
 H    -4.164215     2.299597    -1.960542
 C    -3.195394     4.432616     1.134102
 H    -2.912403     5.022409     2.009193
 C    -4.866829     3.677107    -0.433781
 H    -5.898552     3.676486    -0.793418
 C    -4.515043     4.436865     0.682599
 H    -5.270392     5.033133     1.199381
 C    -3.164211    -1.270162    -1.081668
 C    -2.697753    -2.312600    -0.284170
 H    -2.048224    -2.089622     0.565502
 C    -4.012673    -1.516990    -2.158351
 H    -4.364447    -0.679795    -2.763261
 C    -3.066523    -3.632328    -0.564657
 C    -2.532138    -4.760665     0.267142
 H    -1.552392    -5.092322    -0.115912
 H    -2.396353    -4.453245     1.313857
 H    -3.203452    -5.630875     0.245915
 C    -4.387843    -2.828137    -2.434402
 H    -5.054232    -3.033839    -3.275481
 C    -3.916500    -3.877520    -1.648407
 H    -4.214092    -4.904138    -1.876590
 C    -1.722039     0.306665     1.848462
 C    -3.061099     0.619213     2.070859
 H    -3.576969     1.286329     1.379292
 C    -1.025585    -0.536353     2.713226
 H     0.023237    -0.762578     2.516609
 C    -3.737555     0.075954     3.167267
 C    -5.191429     0.385481     3.376488
 H    -5.416294     1.432673     3.125299
 H    -5.821273    -0.245832     2.727848
 H    -5.498938     0.203954     4.416148
 C    -1.696313    -1.069291     3.810858
 H    -1.158052    -1.729214     4.494484
 C    -3.038967    -0.770554     4.035845
 H    -3.554208    -1.198010     4.900061
 C     1.939819    -2.485531     1.298206
 C     0.899645    -3.412733     1.296144
 H     0.457384    -3.715591     0.346014
 C     2.535993    -2.074784     2.490384
 H     3.347555    -1.347195     2.450893
 C     0.456097    -3.937253     2.508750
 H    -0.354836    -4.668383     2.512777
 C     2.079430    -2.603315     3.695612
 H     2.543379    -2.285992     4.632505
 C     1.041681    -3.536087     3.708658
 H     0.691261    -3.953348     4.655366
 C     4.552600    -0.205856    -0.821939
 C     5.016787     1.034309    -0.398778
 H     4.385289     1.913996    -0.540991
 C     5.315458    -1.359498    -0.654722
 H     4.919255    -2.318583    -0.988965
 C     6.269676     1.148808     0.213961
 C     6.767748     2.492385     0.661433
 H     7.066262     3.110043    -0.201484
 H     5.985499     3.047241     1.201348
 H     7.641173     2.399029     1.321791
 C     6.563162    -1.248302    -0.048560
 H     7.174495    -2.142712     0.093043
 C     7.035379    -0.009328     0.384029
 H     8.014893     0.060367     0.864183
 C     1.809409     1.673251     0.793172
 C     1.685285     2.486353    -0.331487
 H     1.807371     2.063138    -1.330642
 C     1.667693     2.203887     2.075562
 H     1.760079     1.540550     2.936495
 C     1.387479     3.847783    -0.192576
 C     1.154787     4.684422    -1.414726
 H     1.908354     4.485218    -2.191496
 H     0.168996     4.446329    -1.848164
 H     1.171830     5.758129    -1.182327
 C     1.404073     3.560218     2.215937
 H     1.297343     3.985943     3.216513
 C     1.262383     4.379356     1.093601
 H     1.041108     5.442308     1.217518
