  96
scf done:    -2458.774764
 C    -2.001697     1.962565    -2.322026
 H    -1.667086     2.117788    -3.360986
 H    -2.677909     1.090717    -2.366625
 C    -2.779987     3.175718    -1.831272
 H    -2.166521     4.090995    -1.843542
 H    -3.673690     3.374795    -2.452473
 H    -3.138141     3.043156    -0.797540
Rh    -0.295557     1.628703    -1.066709
 C    -3.282580     0.306075     0.261514
 O    -1.849412    -1.286171    -1.286142
 O    -0.973281    -0.791094     1.102220
 C     2.311374    -0.351211     0.228200
 O     2.721454     2.298326    -0.151302
 O     1.396383     1.454775     1.881658
 P     1.493866     1.278551     0.249898
 P    -1.570223    -0.058071    -0.236981
 C     0.583089     2.888586    -2.147407
 O     1.115030     3.612395    -2.856703
 C    -3.485281     1.238337     1.286810
 H    -2.629512     1.701047     1.784056
 C    -4.379703    -0.265285    -0.383358
 H    -4.201311    -0.990418    -1.180951
 C    -4.780444     1.575154     1.663259
 H    -4.944970     2.298650     2.465231
 C    -5.689284     0.074405    -0.020732
 C    -6.858344    -0.523486    -0.747877
 H    -6.998996    -0.037517    -1.727504
 H    -6.706866    -1.596482    -0.938036
 H    -7.792448    -0.403299    -0.181266
 C    -5.871448     0.997605     1.013503
 H    -6.886518     1.272797     1.313095
 C    -1.120737    -1.382476    -2.509194
 H    -1.835844    -1.212764    -3.332145
 H    -0.377756    -0.564294    -2.547428
 C    -0.466230    -2.738005    -2.642395
 H     0.153054    -2.716405    -3.557161
 H     0.233541    -2.882442    -1.801036
 C    -1.448646    -3.898621    -2.720258
 H    -2.164615    -3.707630    -3.539363
 H    -2.051409    -3.921644    -1.797045
 C    -0.773998    -5.243217    -2.935360
 H    -0.200175    -5.256702    -3.876076
 H    -0.068903    -5.472658    -2.120614
 H    -1.506254    -6.063477    -2.980469
 C    -1.644100    -1.813803     1.828987
 H    -1.357243    -1.662337     2.883144
 H    -2.736206    -1.673303     1.758892
 C    -1.246541    -3.201909     1.370912
 H    -1.774412    -3.927737     2.015181
 H    -1.620081    -3.361887     0.346527
 C     0.253267    -3.446336     1.419125
 H     0.623507    -3.225748     2.436646
 H     0.750807    -2.716832     0.762481
 C     0.651257    -4.856098     1.020977
 H     0.203562    -5.610727     1.688031
 H     0.319945    -5.087086    -0.003747
 H     1.743759    -4.987086     1.049120
 C     2.464715    -0.967885    -1.017639
 H     2.055268    -0.487167    -1.910974
 C     2.819478    -0.966011     1.374326
 H     2.672579    -0.481510     2.341978
 C     3.147720    -2.177778    -1.109070
 H     3.276907    -2.660023    -2.081033
 C     3.502577    -2.184320     1.297182
 C     4.001995    -2.863330     2.538481
 H     4.221226    -2.137849     3.334786
 H     3.242904    -3.561343     2.930842
 H     4.912856    -3.447692     2.343061
 C     3.667714    -2.775026     0.038306
 H     4.204620    -3.724449    -0.042271
 C     3.990016     2.308147     0.490380
 H     4.306122     3.364138     0.496129
 H     3.885848     1.990787     1.542088
 C     5.020589     1.458417    -0.232967
 H     5.997935     1.641550     0.248546
 H     4.799708     0.390767    -0.074936
 C     5.110819     1.738036    -1.725642
 H     5.397207     2.792235    -1.888593
 H     4.104639     1.633116    -2.162901
 C     6.083481     0.814321    -2.439346
 H     7.105021     0.912714    -2.036999
 H     5.783656    -0.239643    -2.318956
 H     6.129335     1.027599    -3.518137
 C     0.442715     2.340597     2.447243
 H     0.981613     3.210917     2.861647
 H    -0.232117     2.709839     1.651539
 C    -0.342231     1.624465     3.524405
 H    -1.101915     2.321608     3.920910
 H    -0.884901     0.792316     3.047677
 C     0.514051     1.085716     4.661267
 H     1.045629     1.922223     5.148856
 H     1.296035     0.437762     4.232617
 C    -0.288972     0.310466     5.692666
 H    -1.068695     0.939241     6.152296
 H    -0.796041    -0.553467     5.232617
 H     0.349448    -0.072711     6.503113
