 108
scf done:    -2767.247222
 C    -1.285356     2.587130    -2.483022
 H    -1.043434     2.807126    -3.536118
 H    -2.256030     2.071727    -2.524701
 C    -1.455071     3.888561    -1.710998
 H    -0.520362     4.471212    -1.670834
 H    -2.222574     4.541037    -2.168872
 H    -1.770760     3.709729    -0.671093
Rh     0.238327     1.363316    -1.602281
 C    -2.752758     1.188500     0.100549
 C    -2.502060    -0.582370    -2.283326
 C    -1.448774    -1.405547     0.351484
 C     2.066451    -1.411142    -0.140701
 C     3.530576     0.258159    -1.857265
 C     2.922116     1.294308     0.732533
 P     2.090365     0.346961    -0.647182
 P    -1.592526     0.089453    -0.787291
 C     1.297271     2.356266    -2.727341
 O     1.912744     2.974531    -3.479843
 C    -2.374783     1.592084     1.389617
 H    -1.454889     1.214961     1.839461
 C    -3.913254     1.724752    -0.456876
 H    -4.209441     1.457409    -1.472528
 C    -3.170777     2.476109     2.105217
 H    -2.879855     2.764378     3.118148
 C    -4.715456     2.634642     0.244068
 C    -5.934891     3.220632    -0.406374
 H    -5.652307     3.968629    -1.165424
 H    -6.530219     2.449046    -0.918325
 H    -6.583523     3.719724     0.327155
 C    -4.336106     2.992922     1.538920
 H    -4.956161     3.690619     2.108228
 H    -2.964465     0.296011    -2.753565
 H    -1.687719    -0.870666    -2.961547
 C    -3.497487    -1.691509    -2.115916
 C    -4.829644    -1.404867    -1.787896
 H    -5.134090    -0.365294    -1.660559
 C    -3.122013    -3.040063    -2.303397
 C    -1.738502    -3.416083    -2.751424
 H    -0.962968    -3.047116    -2.065048
 H    -1.511019    -2.997283    -3.745487
 H    -1.632178    -4.507487    -2.817663
 C    -5.771767    -2.412334    -1.605343
 H    -6.801122    -2.154712    -1.345826
 C    -4.078436    -4.042495    -2.104064
 H    -3.781944    -5.085922    -2.241489
 C    -5.390660    -3.743183    -1.750839
 H    -6.114605    -4.547519    -1.601849
 H    -1.726775    -2.266466    -0.272934
 H    -0.383174    -1.513616     0.575090
 C    -2.275911    -1.426301     1.605965
 C    -3.667838    -1.534955     1.520535
 H    -4.131138    -1.625297     0.537416
 C    -1.673080    -1.327972     2.875606
 C    -0.184571    -1.248218     3.032079
 H     0.243926    -0.375196     2.514983
 H     0.315437    -2.136804     2.616060
 H     0.096474    -1.164110     4.089487
 C    -4.469156    -1.514157     2.656185
 H    -5.554386    -1.591839     2.556909
 C    -2.493447    -1.305318     4.009674
 H    -2.024263    -1.219629     4.993850
 C    -3.879189    -1.388029     3.911453
 H    -4.494696    -1.361249     4.813976
 C     1.500922    -2.307999    -1.059993
 H     1.040755    -1.916212    -1.972999
 C     2.643604    -1.911638     1.023381
 H     3.095893    -1.229902     1.741276
 C     1.529264    -3.673921    -0.808494
 H     1.095381    -4.371791    -1.528593
 C     2.661587    -3.285225     1.303048
 C     3.290262    -3.780353     2.572045
 H     4.362582    -3.528597     2.601877
 H     2.822827    -3.312513     3.453002
 H     3.194747    -4.870050     2.674950
 C     2.100330    -4.159266     0.370339
 H     2.108631    -5.234683     0.566891
 H     3.156313    -0.399679    -2.656797
 H     3.615954     1.260199    -2.297650
 C     4.841252    -0.230473    -1.318254
 C     5.043432    -1.603978    -1.121746
 H     4.255932    -2.302688    -1.411305
 C     5.881946     0.666504    -0.987763
 C     5.774287     2.141540    -1.256420
 H     4.957838     2.614802    -0.690996
 H     5.582320     2.345418    -2.322054
 H     6.705245     2.656043    -0.982341
 C     6.222507    -2.095273    -0.569457
 H     6.348653    -3.171105    -0.426454
 C     7.060064     0.154439    -0.431462
 H     7.865038     0.849092    -0.175966
 C     7.234073    -1.209121    -0.209734
 H     8.165586    -1.577392     0.226756
 H     3.915635     0.844621     0.883353
 H     3.082056     2.276736     0.258598
 C     2.236908     1.479529     2.057181
 C     2.740664     0.818150     3.185505
 H     3.628664     0.189042     3.078320
 C     1.153301     2.371332     2.221924
 C     0.666206     3.228659     1.099570
 H     0.373950     2.630900     0.205684
 H     1.456636     3.915080     0.752493
 H    -0.200571     3.830827     1.399275
 C     2.162079     0.961577     4.442714
 H     2.580197     0.429988     5.300619
 C     0.570026     2.489092     3.490465
 H    -0.274534     3.172739     3.611939
 C     1.052366     1.788438     4.592042
 H     0.575218     1.906864     5.567705
