 106
scf done:    -2989.333773
 C    -1.121446    -0.620686    -3.534791
 H    -1.290584    -1.673248    -3.822041
 H    -2.107829    -0.215625    -3.272348
 C    -0.573254     0.160961    -4.722485
 H     0.353540    -0.279821    -5.123326
 H    -1.294527     0.205812    -5.562153
 H    -0.330178     1.203078    -4.453978
Rh     0.143429    -0.486532    -1.838307
 C    -1.931467     1.605878     0.166541
 C    -3.432027    -0.483753    -1.144704
 C    -1.757668    -1.217956     1.038158
 C     2.644436    -1.617672     0.307487
 C     3.071791     1.083357    -0.866217
 C     1.303786     0.875186     1.312510
 P     1.766621    -0.072771    -0.207750
 P    -1.735220    -0.126393    -0.454767
 C     1.300839    -1.457169    -2.885445
 O     1.910181    -2.210435    -3.513590
 C    -1.863749     2.058525     1.499630
 O    -1.680676     1.132813     2.461084
 C    -1.502438     1.530301     3.792335
 H    -1.341321     0.610370     4.369141
 H    -0.618815     2.180907     3.908577
 H    -2.393287     2.046080     4.189577
 C    -2.122257     2.579124    -0.838827
 O    -2.165748     2.104011    -2.098287
 C    -2.548490     2.935379    -3.159687
 H    -2.567824     2.300784    -4.053832
 H    -1.827426     3.752888    -3.323679
 H    -3.549592     3.368251    -2.991482
 C    -2.267577     3.936347    -0.539197
 H    -2.419596     4.669343    -1.329906
 C    -1.978882     3.421906     1.805029
 H    -1.919869     3.763280     2.837168
 C    -2.185404     4.343049     0.786146
 H    -2.280980     5.403106     1.031641
 H    -3.346896    -1.487107    -1.589024
 H    -3.582045     0.226331    -1.967598
 C    -4.548302    -0.423018    -0.149696
 C    -5.042451     0.802859     0.320337
 H    -4.629471     1.735774    -0.068214
 C    -5.117052    -1.600640     0.352330
 H    -4.753608    -2.563991    -0.013444
 C    -6.052733     0.846183     1.278139
 H    -6.420638     1.813253     1.630141
 C    -6.129512    -1.559454     1.308985
 H    -6.557652    -2.492720     1.683779
 C    -6.597365    -0.334622     1.782014
 H    -7.390991    -0.299601     2.532262
 H    -2.627235    -0.957036     1.654010
 H    -0.863211    -0.948109     1.609918
 C    -1.726268    -2.698467     0.770506
 C    -0.794789    -3.281414    -0.097420
 H    -0.136508    -2.626967    -0.685448
 C    -2.575707    -3.542714     1.498283
 H    -3.305482    -3.102015     2.183104
 C    -0.711819    -4.665556    -0.228482
 H     0.028302    -5.093986    -0.908891
 C    -2.495420    -4.928530     1.367879
 H    -3.167724    -5.567530     1.946258
 C    -1.559309    -5.496333     0.504206
 H    -1.493147    -6.582305     0.400986
 C     3.651140    -2.173212    -0.511959
 O     4.054979    -1.423263    -1.553971
 C     4.922585    -1.962867    -2.513300
 H     5.045877    -1.192253    -3.284561
 H     5.910547    -2.199645    -2.082501
 H     4.492920    -2.864308    -2.979139
 C     2.174623    -2.414213     1.373806
 O     1.188566    -1.891146     2.131974
 C     0.642152    -2.651278     3.177007
 H    -0.155714    -2.040071     3.618117
 H     1.395095    -2.870761     3.952916
 H     0.200815    -3.590480     2.805143
 C     2.710073    -3.680113     1.635179
 H     2.335336    -4.280116     2.462145
 C     4.189394    -3.440057    -0.257818
 H     4.967405    -3.849393    -0.899997
 C     3.712977    -4.180301     0.815374
 H     4.126606    -5.171667     1.013665
 H     3.372131     0.685658    -1.841562
 H     3.950153     1.061361    -0.205212
 C     2.534928     2.478635    -1.003332
 C     3.109070     3.538424    -0.292857
 H     3.951127     3.339577     0.374471
 C     1.450732     2.748674    -1.850868
 H     0.981934     1.918242    -2.396397
 C     2.615292     4.836042    -0.418806
 H     3.077530     5.648225     0.147937
 C     0.962527     4.045533    -1.980042
 H     0.125383     4.241708    -2.652482
 C     1.537880     5.094494    -1.263175
 H     1.148878     6.110491    -1.365960
 H     0.576599     0.269139     1.862446
 H     0.742605     1.722897     0.890415
 C     2.354106     1.397090     2.248842
 C     2.241290     2.711648     2.724099
 H     1.421639     3.337347     2.359106
 C     3.426672     0.620127     2.703137
 H     3.543145    -0.402388     2.340901
 C     3.164596     3.233792     3.626572
 H     3.056589     4.262809     3.978980
 C     4.356673     1.143279     3.600655
 H     5.189627     0.520354     3.936389
 C     4.230134     2.450207     4.068369
 H     4.960777     2.857802     4.771175
