 116
scf done:    -3368.523532
 C    -1.531904    -2.133221     2.370674
 H    -1.563005    -1.722093     3.394617
 H    -2.538172    -1.931556     1.969071
 C    -1.308654    -3.639608     2.456291
 H    -0.389678    -3.887186     3.010929
 H    -2.144136    -4.165208     2.957945
 H    -1.194215    -4.108004     1.462615
Rh    -0.026184    -1.098000     1.246661
 C    -2.703429    -1.183975    -1.090432
 C    -3.165322     0.498847     1.251084
 C    -1.665172     1.475165    -1.046938
 C     1.462585     1.698303    -0.078996
 C     3.380572    -0.237209     1.040317
 C     2.353577    -0.749930    -1.494132
 P     1.769810    -0.098087     0.127433
 P    -1.840660     0.003515     0.056175
 C     0.997703    -1.604355     2.654038
 O     1.585342    -1.848545     3.621912
 C    -3.337925    -0.811846    -2.281593
 H    -3.397147     0.241530    -2.559384
 C    -2.670291    -2.535472    -0.750047
 H    -2.159444    -2.830585     0.165901
 C    -3.912766    -1.775980    -3.100657
 H    -4.401233    -1.473177    -4.031141
 C    -3.265100    -3.520268    -1.551709
 C    -3.199846    -4.967822    -1.154509
 H    -2.380248    -5.490137    -1.677559
 H    -3.024270    -5.079409    -0.075101
 H    -4.130268    -5.498052    -1.407296
 C    -3.884590    -3.124023    -2.737968
 H    -4.351075    -3.873580    -3.384149
 C    -4.538577     0.506597     0.944995
 O    -4.872642     0.391383    -0.351919
 C    -6.187535     0.085322    -0.713488
 H    -6.168324    -0.136896    -1.788624
 H    -6.562049    -0.801998    -0.175314
 H    -6.873128     0.932116    -0.533035
 C    -2.795239     0.835181     2.571047
 O    -1.490604     1.030248     2.794036
 C    -0.990047     1.033762     4.100354
 H     0.103373     0.991325     4.013605
 H    -1.327330     0.149562     4.665776
 H    -1.278945     1.949613     4.645858
 C    -3.755388     0.995436     3.577564
 H    -3.451855     1.218161     4.599751
 C    -5.507310     0.666257     1.946116
 H    -6.567960     0.639497     1.699322
 C    -5.102927     0.889998     3.255751
 H    -5.855544     1.012552     4.038525
 C    -2.098313     2.774936    -0.720793
 O    -2.475497     2.988068     0.546841
 C    -3.013097     4.216771     0.931848
 H    -3.293965     4.109710     1.987872
 H    -2.275672     5.032945     0.834261
 H    -3.913952     4.473017     0.347381
 C    -1.111159     1.280285    -2.326395
 O    -0.583013     0.064466    -2.546034
 C    -0.320431    -0.344771    -3.858802
 H    -0.122608    -1.420923    -3.817056
 H     0.569976     0.160234    -4.271108
 H    -1.188564    -0.164204    -4.514637
 C    -1.133882     2.283539    -3.300844
 H    -0.725289     2.103632    -4.294306
 C    -2.124176     3.788716    -1.690268
 H    -2.489038     4.782952    -1.436853
 C    -1.664302     3.525637    -2.973132
 H    -1.689425     4.316679    -3.726375
 C     0.945097     2.341388     1.050525
 H     0.741440     1.754091     1.946822
 C     1.632926     2.426233    -1.255409
 H     1.987069     1.925505    -2.156974
 C     0.673088     3.703395     1.017233
 H     0.271813     4.197474     1.905812
 C     1.350642     3.794621    -1.309927
 C     1.572108     4.570382    -2.575721
 H     1.558730     3.909995    -3.454485
 H     0.796666     5.337707    -2.717824
 H     2.547006     5.087082    -2.561575
 C     0.881583     4.428895    -0.154149
 H     0.653466     5.498698    -0.183971
 C     3.801252    -1.554488     1.311557
 O     3.043569    -2.525798     0.769757
 C     3.130820    -3.835218     1.256261
 H     2.286242    -4.383002     0.819018
 H     4.073831    -4.323235     0.953060
 H     3.039506    -3.860748     2.354563
 C     4.188004     0.815129     1.516142
 O     3.833331     2.066986     1.180579
 C     4.457548     3.164565     1.773618
 H     3.909626     4.050306     1.426098
 H     5.516987     3.254509     1.471080
 H     4.408975     3.121493     2.875983
 C     5.322758     0.552073     2.296759
 H     5.933792     1.371582     2.673428
 C     4.933203    -1.824542     2.087925
 H     5.228849    -2.851121     2.300819
 C     5.678598    -0.761519     2.579891
 H     6.563523    -0.959119     3.189632
 C     1.802708    -1.936587    -2.013772
 O     0.752388    -2.457565    -1.365007
 C     0.345282    -3.766302    -1.642018
 H    -0.348066    -4.047539    -0.841559
 H    -0.185753    -3.839238    -2.607644
 H     1.200662    -4.463721    -1.643619
 C     3.498076    -0.221819    -2.124282
 O     4.045062     0.852836    -1.534447
 C     5.232368     1.404311    -2.018293
 H     5.484381     2.225967    -1.336118
 H     5.113316     1.809816    -3.038821
 H     6.055322     0.668843    -2.017565
 C     4.031529    -0.804373    -3.281499
 H     4.905516    -0.376832    -3.771398
 C     2.343716    -2.537305    -3.161170
 H     1.906028    -3.447960    -3.568430
 C     3.441245    -1.957794    -3.785305
 H     3.854164    -2.423008    -4.683917
