  82
scf done:    -2226.925942
 C     1.562684    -2.995299    -0.068273
 H     2.251719    -3.186298    -0.907680
 H     2.198872    -2.667504     0.770499
 C     0.820850    -4.265655     0.318213
 H     0.280904    -4.707524    -0.535012
 H     1.506572    -5.042298     0.707872
 H     0.072860    -4.082223     1.108823
Rh     0.182202    -1.461620    -0.488782
 C     1.318265     0.786665     2.101691
 C     3.411612    -0.400612     0.474941
 C     1.748082     1.583141    -0.649084
 C    -2.069829     0.607333    -2.283691
 C    -3.213073    -0.929398    -0.095268
 C    -1.730704     1.434616     0.474950
 P    -1.676410    -0.050930    -0.599167
 P     1.641546     0.095010     0.423130
 C    -0.321255    -2.431902    -1.976050
 O    -0.505323    -2.891662    -3.019493
 H     0.511392     1.522258     1.967733
 C     0.885307    -0.297037     3.078345
 H     1.665992    -1.059086     3.226031
 H    -0.007527    -0.819758     2.701150
 H     2.196897     1.339984     2.468826
 H     0.641629     0.132467     4.062440
 C     3.989713    -0.836251    -0.724640
 H     3.383082    -0.875836    -1.633118
 C     4.186129    -0.387582     1.635432
 H     3.753097    -0.058683     2.583249
 C     5.322204    -1.226635    -0.752295
 H     5.771924    -1.557656    -1.691519
 C     5.527946    -0.794116     1.626187
 C     6.326449    -0.806177     2.897835
 H     6.106790     0.073781     3.520996
 H     6.091919    -1.698629     3.501760
 H     7.406874    -0.820192     2.695779
 C     6.086790    -1.206120     0.414762
 H     7.133829    -1.520046     0.384420
 C     2.117463     2.841678    -0.165113
 H     2.371663     2.981004     0.887247
 C     1.435502     1.434472    -2.003529
 H     1.138196     0.439959    -2.356341
 C     2.136986     3.934062    -1.028246
 H     2.408585     4.921965    -0.647692
 C     1.463494     2.520391    -2.886005
 C     1.150377     2.330518    -4.341951
 H     2.055919     2.044871    -4.902486
 H     0.412111     1.529535    -4.494804
 H     0.760313     3.252585    -4.796624
 C     1.806082     3.777129    -2.373517
 H     1.818414     4.644495    -3.039671
 H    -2.047391    -0.284080    -2.931425
 C    -3.347955     1.400905    -2.485024
 H    -3.402467     2.266873    -1.807665
 H    -4.238843     0.780031    -2.313904
 H    -1.183281     1.198540    -2.564481
 H    -3.402115     1.781744    -3.517003
 C    -3.195922    -2.322959     0.011091
 H    -2.264973    -2.862034    -0.184357
 C    -4.401756    -0.239837     0.187614
 H    -4.415998     0.852013     0.143906
 C    -4.354458    -3.008144     0.377515
 H    -4.334355    -4.097222     0.463518
 C    -5.569223    -0.912703     0.553664
 C    -6.839319    -0.162057     0.833015
 H    -6.655251     0.917051     0.931412
 H    -7.569375    -0.302603     0.018940
 H    -7.318280    -0.513128     1.759828
 C    -5.528127    -2.311347     0.642853
 H    -6.430089    -2.857269     0.934586
 C    -1.265603     2.676684     0.026427
 H    -0.939556     2.811598    -1.006688
 C    -2.110945     1.298897     1.817162
 H    -2.473905     0.331493     2.175698
 C    -1.189061     3.750531     0.910879
 H    -0.821737     4.715111     0.552757
 C    -2.033137     2.366070     2.715956
 C    -2.404957     2.176174     4.157955
 H    -2.700379     3.124767     4.628646
 H    -3.234667     1.462928     4.268501
 H    -1.553182     1.774752     4.732363
 C    -1.566940     3.599225     2.242526
 H    -1.501758     4.449324     2.927202
