  98
scf done:    -3132.969219
 C    -1.295182     1.734728    -2.998608
 H    -1.022716     1.720884    -4.064672
 H    -2.222472     1.148864    -2.918302
 C    -1.514618     3.166632    -2.531121
 H    -0.630503     3.798440    -2.719448
 H    -2.366213     3.647019    -3.049587
 H    -1.731326     3.223522    -1.451025
Rh     0.253761     0.964038    -1.779889
 C    -2.951200     0.978560    -0.152701
 O    -1.694105    -1.400470    -0.850182
 O    -0.741880    -0.101923     1.124371
 C     2.131633    -1.194983     0.450377
 O     3.426382     0.579861    -1.131583
 O     2.192950     1.428635     0.923346
 P     1.954090     0.427609    -0.376411
 P    -1.331355     0.149175    -0.405909
 C     1.266256     0.657190    -3.313835
 O     1.836177     0.269269    -4.234399
 C    -3.008262     2.069543     0.740979
 O    -1.865444     2.367622     1.378752
 C    -1.792550     3.501272     2.202238
 H    -0.754364     3.560010     2.548287
 H    -2.033303     4.420341     1.643410
 H    -2.468393     3.414615     3.071142
 C    -4.077782     0.729756    -0.963972
 O    -3.931485    -0.195060    -1.923583
 C    -5.051060    -0.672642    -2.619048
 H    -4.688168    -1.483813    -3.261489
 H    -5.504627     0.112412    -3.247356
 H    -5.807190    -1.077964    -1.925949
 C    -5.269260     1.440269    -0.774999
 H    -6.146799     1.221243    -1.381254
 C    -4.191925     2.793717     0.922250
 H    -4.235360     3.620173     1.629780
 C    -5.312543     2.455096     0.172864
 H    -6.239745     3.015606     0.314114
 C    -2.741780    -2.250209    -0.660120
 C    -3.676551    -2.140318     0.372090
 H    -3.612864    -1.327471     1.094626
 C    -2.829706    -3.305141    -1.571586
 H    -2.084160    -3.361582    -2.366765
 C    -4.699020    -3.081414     0.471594
 H    -5.425201    -2.986996     1.282628
 C    -3.850221    -4.244512    -1.455280
 H    -3.907365    -5.067585    -2.172045
 C    -4.795090    -4.136518    -0.434874
 H    -5.596628    -4.872542    -0.342845
 C    -1.232850    -0.904136     2.110145
 C    -0.997356    -2.279638     2.066025
 H    -0.459452    -2.699571     1.215738
 C    -1.915756    -0.334785     3.185887
 H    -2.067825     0.744046     3.193780
 C    -1.460486    -3.086501     3.101384
 H    -1.280647    -4.163276     3.061058
 C    -2.374391    -1.152854     4.216856
 H    -2.911065    -0.708678     5.058857
 C    -2.151584    -2.529808     4.177808
 H    -2.515961    -3.167899     4.986015
 C     2.096510    -1.482161     1.831453
 O     1.924582    -0.467178     2.688014
 C     1.720088    -0.733157     4.048324
 H     1.515061     0.235821     4.520715
 H     0.852971    -1.396508     4.206629
 H     2.613750    -1.178343     4.519851
 C     2.253616    -2.272010    -0.454083
 O     2.274975    -1.919513    -1.748891
 C     2.317075    -2.894502    -2.753712
 H     2.269592    -2.350917    -3.705002
 H     1.456115    -3.580791    -2.684365
 H     3.254503    -3.474940    -2.709970
 C     2.357810    -3.594193    -0.014814
 H     2.456379    -4.414146    -0.724369
 C     2.230785    -2.807982     2.273211
 H     2.213753    -3.034741     3.337555
 C     2.357535    -3.839776     1.353744
 H     2.453681    -4.866830     1.714052
 C     4.588839    -0.021991    -0.745689
 C     5.333880    -0.659480    -1.738883
 H     4.948766    -0.651460    -2.760170
 C     5.036536    -0.005981     0.577092
 H     4.442915     0.500604     1.339737
 C     6.532014    -1.285169    -1.405969
 H     7.115839    -1.781428    -2.185287
 C     6.233172    -0.643909     0.897969
 H     6.581892    -0.635797     1.933623
 C     6.984749    -1.284363    -0.086130
 H     7.922869    -1.779749     0.173755
 C     1.808751     2.724451     1.043238
 C     2.049767     3.319554     2.286319
 H     2.504304     2.711473     3.070389
 C     1.229092     3.471800     0.014838
 H     1.047894     3.007526    -0.965414
 C     1.726731     4.658238     2.491166
 H     1.931846     5.117244     3.461655
 C     0.896547     4.806464     0.237177
 H     0.441909     5.378223    -0.575571
 C     1.146937     5.410865     1.468288
 H     0.895873     6.461545     1.629196
