  80
scf done:    -2000.853282
 C     2.201634    -2.934458    -0.258619
 H     2.037332    -3.987350    -0.536193
 H     2.949652    -2.561452    -0.971589
 C     2.748197    -2.873668     1.161164
 H     2.029860    -3.272553     1.896011
 H     3.682092    -3.456780     1.277393
 H     2.985965    -1.842135     1.477090
Rh     0.419475    -1.799464    -0.213972
 C     1.543139     1.501440     0.432039
 C     3.374806     0.041636    -1.256857
 C     0.684271     0.957995    -2.305873
 C    -2.273697     0.578791    -0.493303
 C    -2.970047    -1.909942     0.758107
 C    -1.173191     0.091849     2.176493
 P    -1.521601    -0.734973     0.541439
 P     1.549250     0.179597    -0.847776
 C    -0.420669    -3.364717    -0.655324
 O    -0.941925    -4.297693    -1.093738
 C     0.848754     2.710291     0.322153
 H     0.322852     2.968423    -0.596466
 C     2.190175     1.211778     1.643038
 H     2.718464     0.259695     1.751130
 C     0.793996     3.588130     1.405954
 H     0.236358     4.523827     1.313415
 C     2.152760     2.081658     2.733308
 C     2.862825     1.745193     4.012036
 H     3.087171     0.671120     4.076321
 H     3.818994     2.289082     4.087418
 H     2.261816     2.023669     4.890595
 C     1.433508     3.278212     2.601085
 H     1.375539     3.969624     3.446267
 H     3.727143    -0.642273    -0.465127
 C     3.580258    -0.666357    -2.594088
 H     4.620921    -1.017963    -2.676280
 H     2.919827    -1.537488    -2.708465
 H     3.397108     0.013033    -3.439624
 C     4.195208     1.322927    -1.167525
 H     4.100080     1.811374    -0.187991
 H     5.261172     1.087451    -1.322270
 H     3.906331     2.053313    -1.935860
 H    -0.242978     1.318758    -1.830048
 C     1.378005     2.141889    -2.971416
 H     0.676710     2.634399    -3.664656
 H     1.725727     2.898510    -2.254372
 H     2.246045     1.820375    -3.564932
 C     0.263121    -0.094525    -3.327992
 H    -0.188169    -0.964089    -2.826139
 H    -0.473102     0.337921    -4.023843
 H     1.116293    -0.454127    -3.920981
 C    -2.747610     0.204710    -1.760630
 H    -2.718830    -0.844930    -2.064856
 C    -2.296046     1.932211    -0.143953
 H    -1.931655     2.250319     0.833752
 C    -3.225139     1.166407    -2.642931
 H    -3.594848     0.864794    -3.626020
 C    -2.750698     2.915839    -1.032362
 C    -2.695755     4.365966    -0.646949
 H    -2.878275     4.504217     0.428808
 H    -1.702106     4.793495    -0.865789
 H    -3.435160     4.961875    -1.200699
 C    -3.218554     2.515639    -2.286744
 H    -3.583661     3.266962    -2.992247
 H    -2.967191    -2.427799    -0.217288
 C    -2.670126    -2.956944     1.825704
 H    -3.385029    -3.790917     1.747589
 H    -1.656130    -3.370530     1.721610
 H    -2.766632    -2.535278     2.837870
 C    -4.346164    -1.282944     0.947632
 H    -4.569668    -0.529892     0.178943
 H    -5.118168    -2.067066     0.882048
 H    -4.451306    -0.804569     1.930776
 H    -0.599695     0.977940     1.855123
 C    -2.369818     0.558282     2.996370
 H    -2.024289     1.196784     3.825935
 H    -3.093560     1.137856     2.406076
 H    -2.905336    -0.292303     3.443277
 C    -0.219647    -0.762321     3.009187
 H     0.625407    -1.122834     2.402062
 H     0.182372    -0.169578     3.846418
 H    -0.722151    -1.644673     3.431273
