 106
scf done:    -2465.505000
 C    -0.812979    -3.666603    -1.488115
 H    -0.414761    -4.675418    -1.297786
 H    -1.818316    -3.671558    -1.032094
 C    -0.894435    -3.429625    -2.990479
 H    -1.527165    -4.179491    -3.503396
 H    -1.309494    -2.438416    -3.241182
 H     0.101449    -3.479190    -3.459645
Rh     0.431128    -2.136068    -0.692621
 O    -1.183745     0.833141    -0.570475
 C    -3.002684    -1.092107    -1.299435
 C    -1.919144    -0.935499     1.401886
 O     1.305637     0.265632     1.386033
 C     3.556480    -0.873762     0.326732
 C     1.971802     0.960644    -1.238482
 P     1.814855    -0.443215    -0.061372
 P    -1.438351    -0.833431    -0.362511
 C     1.610512    -3.488233    -0.254169
 O     2.288130    -4.329440     0.145405
 C    -2.170909     1.775226    -0.538233
 C    -2.606474     2.320478     0.671422
 H    -2.148445     1.990484     1.605100
 C    -2.722971     2.231653    -1.737173
 H    -2.347373     1.827775    -2.679351
 C    -3.623065     3.273036     0.674744
 H    -3.960239     3.686835     1.629100
 C    -3.739308     3.181027    -1.717420
 H    -4.169362     3.521627    -2.663540
 C    -4.221033     3.709595    -0.512588
 C    -5.349666     4.699362    -0.500549
 H    -5.262406     5.421630    -1.325863
 H    -5.382726     5.262205     0.443034
 H    -6.321853     4.191318    -0.615299
 H    -2.851407    -0.563881    -2.255951
 H    -3.021433    -2.162169    -1.558906
 C    -4.321933    -0.676164    -0.657812
 H    -4.543474    -1.340589     0.194738
 H    -4.249559     0.340021    -0.240682
 C    -5.482545    -0.710217    -1.641828
 H    -5.593732    -1.729429    -2.054658
 H    -5.239608    -0.061003    -2.502863
 C    -6.800258    -0.255754    -1.030367
 H    -7.039835    -0.898570    -0.164746
 H    -6.668999     0.761447    -0.619682
 C    -7.959306    -0.266976    -2.013570
 H    -8.895952     0.068873    -1.543222
 H    -8.133210    -1.278180    -2.415339
 H    -7.761110     0.396127    -2.871217
 H    -1.065964    -0.492529     1.941540
 H    -2.805692    -0.308367     1.586866
 C    -2.151823    -2.369718     1.861430
 H    -2.981808    -2.823101     1.290263
 H    -1.256829    -2.966375     1.615119
 C    -2.453472    -2.468788     3.349599
 H    -3.345694    -1.860964     3.589085
 H    -1.620782    -2.014973     3.916971
 C    -2.671744    -3.897813     3.826352
 H    -3.500979    -4.347799     3.251960
 H    -1.779190    -4.498776     3.579145
 C    -2.964430    -4.000415     5.314409
 H    -3.116684    -5.044254     5.628239
 H    -3.872221    -3.436363     5.583691
 H    -2.134898    -3.591014     5.913265
 C     1.705541     1.493414     1.829160
 C     0.999500     2.634689     1.440770
 H     0.135146     2.520413     0.787013
 C     2.798670     1.616665     2.686479
 H     3.323228     0.717027     3.013688
 C     1.421520     3.888484     1.867584
 H     0.866299     4.773925     1.544702
 C     3.209368     2.880852     3.106453
 H     4.073618     2.967099     3.770916
 C     2.542712     4.039935     2.694982
 C     3.010996     5.403839     3.113014
 H     3.463548     5.944688     2.265284
 H     3.766431     5.344671     3.909074
 H     2.177272     6.021164     3.481266
 H     4.082951     0.008224     0.725527
 H     3.502006    -1.618816     1.138019
 C     4.291189    -1.453487    -0.876989
 H     3.638717    -2.177165    -1.396271
 H     4.493099    -0.653524    -1.610179
 C     5.597121    -2.140166    -0.503113
 H     5.378907    -2.959010     0.205759
 H     6.245199    -1.430195     0.042792
 C     6.350748    -2.698731    -1.701631
 H     5.692740    -3.401160    -2.242838
 H     6.561538    -1.879201    -2.411759
 C     7.647373    -3.397616    -1.326312
 H     8.168356    -3.791722    -2.212017
 H     7.460962    -4.244140    -0.646087
 H     8.338382    -2.709804    -0.812454
 H     2.024157     0.477609    -2.229738
 H     0.983288     1.445943    -1.210511
 C     3.103612     1.969841    -1.058770
 H     3.260636     2.193347     0.006992
 H     4.052958     1.537297    -1.417428
 C     2.834905     3.282546    -1.781050
 H     1.858495     3.676534    -1.445305
 H     2.730143     3.101292    -2.866453
 C     3.906891     4.333697    -1.532495
 H     3.997446     4.493009    -0.442926
 H     4.886181     3.941715    -1.860224
 C     3.626582     5.658422    -2.222941
 H     4.415389     6.398974    -2.020738
 H     2.670564     6.089049    -1.883421
 H     3.559527     5.534509    -3.315886
