 102
scf done:    -2985.342052
 C    -0.889968    -3.192932    -1.680285
 H    -0.388192    -4.069031    -1.226051
 H    -1.914511    -3.207981    -1.270675
 C    -0.931699    -3.378049    -3.189164
 H     0.078665    -3.502422    -3.610274
 H    -1.522235    -4.264169    -3.493651
 H    -1.375402    -2.510196    -3.703057
Rh     0.154102    -1.564236    -0.829528
 C    -2.853772    -0.450227    -2.327066
 C    -3.124496    -0.954688     0.495165
 C    -1.782640     1.440842    -0.481979
 C     0.693074    -0.206445     2.297436
 C     3.127699    -0.756406     0.919692
 C     1.627859     1.589116     0.060581
 P     1.398686    -0.166498     0.589838
 P    -1.868454    -0.389836    -0.732054
 C     1.597125    -2.089761    -1.810030
 O     2.468132    -2.337699    -2.536857
 H    -2.085549    -0.551168    -3.104621
 C    -3.892262    -1.551294    -2.461312
 H    -4.712256    -1.439420    -1.739352
 H    -3.460822    -2.551110    -2.327704
 H    -3.327538     0.533000    -2.453897
 H    -4.332601    -1.514890    -3.470918
 C    -4.413984    -0.398237     0.572395
 O    -4.656037     0.633224    -0.260852
 C    -5.905949     1.257530    -0.252689
 H    -5.853898     2.065472    -0.993413
 H    -6.715794     0.561829    -0.534606
 H    -6.140352     1.694404     0.734087
 C    -2.798310    -1.989997     1.388826
 O    -1.537102    -2.453583     1.346664
 C    -1.151578    -3.528564     2.154652
 H    -0.081735    -3.674926     1.965984
 H    -1.703372    -4.448938     1.896992
 H    -1.295596    -3.307111     3.226579
 C    -3.751116    -2.492546     2.289647
 H    -3.502201    -3.309219     2.965512
 C    -5.367955    -0.882276     1.473632
 H    -6.368101    -0.453097     1.520171
 C    -5.021791    -1.934119     2.317310
 H    -5.763772    -2.325726     3.017590
 C    -1.325900     2.218826    -1.564029
 O    -0.842544     1.524540    -2.610948
 C    -0.429583     2.194784    -3.765554
 H    -0.088110     1.420680    -4.464853
 H    -1.258102     2.759306    -4.229064
 H     0.405939     2.883525    -3.554690
 C    -2.171576     2.118076     0.685134
 O    -2.435337     1.357067     1.766017
 C    -3.065437     1.911594     2.880803
 H    -3.279586     1.077338     3.561460
 H    -4.016151     2.403658     2.609817
 H    -2.422093     2.643320     3.400526
 C    -2.268082     3.515742     0.711398
 H    -2.625211     4.029270     1.603620
 C    -1.393606     3.615716    -1.541522
 H    -1.046363     4.204610    -2.388895
 C    -1.889983     4.247861    -0.408139
 H    -1.958003     5.338265    -0.386713
 H     0.376379    -1.255684     2.386544
 C     1.610210     0.168170     3.448465
 H     2.043538     1.167733     3.314133
 H     2.441524    -0.546839     3.539738
 H    -0.228049     0.391398     2.269732
 H     1.056705     0.158595     4.402050
 C     4.258052     0.077376     1.054533
 O     4.032741     1.399291     1.167590
 C     5.079998     2.312032     1.022606
 H     4.617379     3.307698     1.002744
 H     5.794212     2.261797     1.863911
 H     5.629615     2.155619     0.078164
 C     3.343522    -2.146322     0.996070
 O     2.246095    -2.929013     1.053892
 C     2.327798    -4.251101     0.587287
 H     1.296556    -4.589842     0.424085
 H     2.818475    -4.913980     1.321418
 H     2.865490    -4.302623    -0.372728
 C     4.634112    -2.688357     1.038937
 H     4.779204    -3.767711     1.069623
 C     5.552873    -0.455277     1.092189
 H     6.419088     0.201551     1.164520
 C     5.727737    -1.834032     1.066505
 H     6.737686    -2.249848     1.098108
 C     2.267670     1.771571    -1.183125
 O     2.709498     0.651094    -1.775571
 C     3.322586     0.709916    -3.031540
 H     3.526611    -0.328156    -3.317359
 H     2.658844     1.166411    -3.785942
 H     4.268954     1.278059    -2.994870
 C     1.236895     2.743241     0.759752
 O     0.655222     2.573141     1.966144
 C     0.484720     3.670186     2.812244
 H     0.116347     3.271318     3.767156
 H    -0.254738     4.386392     2.415781
 H     1.437434     4.199148     2.991304
 C     1.465145     4.023466     0.235607
 H     1.141397     4.907737     0.781760
 C     2.484975     3.045319    -1.722146
 H     2.992442     3.164529    -2.678673
 C     2.080135     4.162722    -1.000347
 H     2.249446     5.161832    -1.409337
