 108
scf done:    -2467.464735
 C    -1.155306     1.153614    -3.214386
 H    -0.829491     0.956297    -4.247478
 H    -2.212100     0.854818    -3.181757
 C    -1.016652     2.641214    -2.923168
 H     0.030852     2.977599    -2.991174
 H    -1.599237     3.263719    -3.629504
 H    -1.369501     2.906612    -1.910533
Rh     0.053226     0.200689    -1.768388
 C    -1.609393     0.996696     1.293154
 C    -3.434680     0.503007    -0.868442
 C    -1.851606    -1.753371     0.368397
 C     1.661610    -1.516848     1.015938
 C     3.400136    -0.536424    -1.032256
 C     1.949801     1.376759     0.822966
 P     1.761163    -0.156032    -0.211268
 P    -1.742257    -0.001502    -0.247735
 C     0.994982    -0.473056    -3.184945
 O     1.500615    -1.040748    -4.055565
 C    -1.345553     0.459724     2.557465
 H    -1.251461    -0.617327     2.693827
 C    -1.711559     2.390654     1.170489
 H    -1.896313     2.829375     0.185103
 C    -1.178905     1.301836     3.657507
 H    -0.958811     0.870361     4.637549
 C    -1.578930     3.245603     2.266264
 C    -1.751227     4.728607     2.109608
 H    -1.562933     5.048955     1.075064
 H    -2.779528     5.031869     2.367872
 H    -1.071641     5.286458     2.770658
 C    -1.296697     2.680548     3.517724
 H    -1.169719     3.330790     4.387559
 H    -3.198448     1.433837    -1.417450
 C    -4.515696     0.848343     0.158454
 H    -4.135400     1.559584     0.905743
 H    -4.809718    -0.056473     0.713927
 C    -5.741553     1.432992    -0.540559
 H    -6.523521     1.662474     0.201793
 H    -5.462737     2.396337    -1.005274
 C    -6.285693     0.497401    -1.614594
 H    -7.137986     0.963634    -2.135202
 H    -6.679600    -0.415207    -1.130895
 C    -5.201690     0.101920    -2.611068
 H    -4.886438     0.989624    -3.188603
 H    -5.596122    -0.620779    -3.343672
 C    -3.985631    -0.484758    -1.901851
 H    -4.287230    -1.414668    -1.391241
 H    -3.206016    -0.763918    -2.626388
 H    -0.954345    -1.829815     1.010149
 C    -1.653327    -2.769549    -0.762676
 H    -0.740045    -2.508954    -1.322117
 H    -2.483130    -2.692924    -1.483080
 C    -1.587862    -4.194661    -0.223534
 H    -1.501264    -4.905223    -1.061740
 H    -0.671710    -4.305141     0.378710
 C    -2.790234    -4.539010     0.647238
 H    -2.687928    -5.556658     1.058426
 H    -3.706061    -4.544635     0.028068
 C    -2.958799    -3.523230     1.771075
 H    -2.084913    -3.576874     2.446534
 H    -3.844398    -3.762693     2.382316
 C    -3.076625    -2.107572     1.213934
 H    -3.981196    -2.053054     0.586320
 H    -3.222860    -1.381566     2.027929
 C     1.758159    -2.834651     0.543606
 H     1.922305    -3.023170    -0.520726
 C     1.423211    -1.313283     2.378588
 H     1.347143    -0.298924     2.772612
 C     1.638139    -3.905403     1.422436
 H     1.734274    -4.927343     1.047738
 C     1.258789    -2.382336     3.268760
 C     0.931101    -2.121721     4.710591
 H     1.394939    -1.190450     5.067361
 H    -0.158606    -2.018433     4.851935
 H     1.266255    -2.943850     5.358934
 C     1.379787    -3.684142     2.775301
 H     1.272279    -4.533243     3.455614
 H     3.107069    -1.354606    -1.717075
 C     4.549308    -1.063952    -0.171219
 H     4.211464    -1.891733     0.469479
 H     4.908173    -0.272194     0.504927
 C     5.703002    -1.524568    -1.060293
 H     6.535668    -1.889373    -0.436854
 H     5.367448    -2.386551    -1.665131
 C     6.180801    -0.414165    -1.990050
 H     6.980192    -0.784718    -2.652230
 H     6.630352     0.393514    -1.383638
 C     5.031925     0.161740    -2.810797
 H     4.654200    -0.602722    -3.512830
 H     5.384010     1.003757    -3.428582
 C     3.882720     0.615371    -1.916865
 H     4.230592     1.443933    -1.275511
 H     3.051473     1.010430    -2.521595
 H     1.085126     1.305418     1.509211
 C     1.719365     2.638173    -0.017457
 H     0.775763     2.537560    -0.579674
 H     2.514371     2.734146    -0.774748
 C     1.697666     3.886824     0.857058
 H     1.573805     4.783106     0.227553
 H     0.815367     3.838570     1.515592
 C     2.948569     4.005239     1.719687
 H     2.882661     4.891674     2.371636
 H     3.830061     4.161478     1.071297
 C     3.160749     2.745165     2.550901
 H     2.327126     2.636182     3.268844
 H     4.082756     2.825887     3.149641
 C     3.221104     1.506600     1.661680
 H     4.089466     1.599230     0.988458
 H     3.391719     0.601969     2.265398
