  90
scf done:    -2380.076895
 C    -1.563940    -2.794253     0.068320
 H    -1.325030    -3.799827     0.448373
 H    -2.356173    -2.405720     0.727915
 C    -2.062711    -2.885725    -1.366435
 H    -1.311749    -3.348316    -2.028624
 H    -2.985418    -3.491669    -1.455989
 H    -2.302158    -1.892903    -1.785245
Rh     0.131234    -1.542967    -0.063397
 C    -3.007201     0.218469    -0.045485
 C    -1.439557    -0.093348     2.467747
 C    -0.783407     1.945253     0.605385
 C     2.518013     1.145280     0.202982
 C     3.521881    -1.009107    -1.335362
 C     1.356844     0.464940    -2.470812
 P     1.892360    -0.238927    -0.847465
 P    -1.287065     0.164827     0.639431
 C     1.128426    -2.909533     0.626981
 O     1.714332    -3.662036     1.286569
 C    -3.176713     0.778607    -1.328715
 O    -2.064644     1.290771    -1.904503
 C    -2.184233     2.041774    -3.079107
 H    -1.183600     2.434999    -3.300719
 H    -2.517154     1.425581    -3.931690
 H    -2.884008     2.885691    -2.951173
 C    -4.143879    -0.360262     0.555064
 O    -3.980505    -0.910823     1.774034
 C    -5.031349    -1.613103     2.372601
 H    -4.639080    -2.008501     3.318354
 H    -5.367758    -2.456092     1.744897
 H    -5.893805    -0.959218     2.590892
 C    -5.388985    -0.358712    -0.088795
 H    -6.258562    -0.808148     0.388003
 C    -4.417611     0.795490    -1.973733
 H    -4.528111     1.234970    -2.963752
 C    -5.514176     0.221690    -1.343045
 H    -6.485562     0.222086    -1.842774
 H    -2.234837     0.539997     2.889904
 H    -1.756647    -1.136246     2.594002
 C    -0.108629     0.128294     3.176496
 H     0.157742     1.198293     3.174690
 H     0.677703    -0.388405     2.600072
 C    -0.128043    -0.383268     4.608249
 H    -0.924173     0.098712     5.198933
 H    -0.305583    -1.470124     4.636980
 H     0.826892    -0.186545     5.121289
 H     0.142812     1.981346     1.198755
 H    -0.491184     2.188410    -0.423761
 C    -1.790726     2.954046     1.133893
 H    -2.035389     2.721268     2.184054
 H    -2.738603     2.858792     0.578299
 C    -1.280041     4.384163     1.038331
 H    -0.327037     4.504204     1.578905
 H    -1.101732     4.669046    -0.011671
 H    -1.999339     5.104017     1.458572
 C     2.434764     2.526077    -0.051621
 O     1.930563     2.901465    -1.247026
 C     1.833802     4.260678    -1.562219
 H     1.414100     4.314756    -2.575430
 H     1.163398     4.797262    -0.869281
 H     2.820964     4.754719    -1.560051
 C     3.035489     0.742255     1.453855
 O     3.117685    -0.588444     1.634272
 C     3.504770    -1.119535     2.873265
 H     3.392193    -2.206775     2.784631
 H     2.854351    -0.758308     3.687133
 H     4.554142    -0.872027     3.109256
 C     3.430485     1.669249     2.423844
 H     3.820413     1.339295     3.385832
 C     2.833211     3.463075     0.911989
 H     2.760457     4.531005     0.711998
 C     3.319931     3.024929     2.138450
 H     3.625358     3.759570     2.887162
 H     3.867339    -0.457166    -2.227242
 H     4.236401    -0.782045    -0.531442
 C     3.517529    -2.508034    -1.600725
 H     2.678694    -2.781492    -2.261346
 H     3.326394    -3.038860    -0.657213
 C     4.829973    -2.987124    -2.202131
 H     5.025475    -2.510219    -3.176650
 H     5.681473    -2.748157    -1.544226
 H     4.826234    -4.076716    -2.358362
 H     0.516093     1.141754    -2.268930
 H     2.167525     1.064366    -2.912554
 C     0.911404    -0.651342    -3.410512
 H     0.090304    -1.213536    -2.931322
 H     1.729743    -1.376867    -3.548094
 C     0.475913    -0.139060    -4.774198
 H    -0.372792     0.556208    -4.690647
 H     1.294148     0.398916    -5.280185
 H     0.163303    -0.964985    -5.431253
