 104
scf done:    -2315.123411
 C     0.598122     3.119462    -1.032282
 H     1.138967     3.590389    -1.867867
 H    -0.443394     3.459931    -1.130362
 C     1.195528     3.593507     0.285862
 H     2.250049     3.288908     0.390243
 H     1.170562     4.695689     0.388931
 H     0.664143     3.181875     1.161642
Rh     0.813982     1.019199    -0.988089
 C    -1.314250     0.438080     1.888212
 C    -2.441465     2.193183    -0.066104
 C    -2.230635    -0.617972    -0.628153
 C     0.525304    -2.580253    -0.929545
 C     3.147593    -1.604118    -1.307605
 C     1.900101    -1.308449     1.301339
 P     1.554760    -1.123265    -0.500651
 P    -1.263602     0.778363     0.080545
 C     1.830480     1.183600    -2.505550
 O     2.350712     1.235351    -3.535176
 C    -1.443135    -0.859749     2.397856
 H    -1.570087    -1.709615     1.723518
 C    -1.150420     1.497314     2.791807
 H    -1.042568     2.517709     2.414245
 C    -1.417243    -1.077671     3.775194
 H    -1.525435    -2.093670     4.163419
 C    -1.121401     1.295724     4.174057
 C    -0.943348     2.448006     5.119293
 H    -0.930405     3.408150     4.585241
 H    -1.754495     2.482868     5.863131
 H     0.003269     2.361182     5.675798
 C    -1.258979    -0.012766     4.656555
 H    -1.242534    -0.195356     5.734643
 H    -3.314024     2.008700     0.581196
 H    -1.926168     3.081326     0.333325
 C    -2.856936     2.443431    -1.510968
 H    -1.966372     2.379828    -2.160527
 H    -3.533932     1.639664    -1.847539
 C    -3.538547     3.789444    -1.710060
 H    -2.847999     4.592440    -1.393742
 H    -4.414527     3.864175    -1.039704
 C    -3.975229     4.038979    -3.146665
 H    -3.095141     3.954242    -3.808041
 H    -4.663052     3.233741    -3.461054
 C    -4.641518     5.389993    -3.349861
 H    -4.944485     5.541170    -4.397068
 H    -3.962232     6.214036    -3.078291
 H    -5.543747     5.489403    -2.724746
 H    -2.184114    -0.480138    -1.720288
 H    -1.636563    -1.524171    -0.442831
 C    -3.663236    -0.814260    -0.152876
 H    -3.712678    -0.748817     0.947352
 H    -4.305497    -0.001106    -0.531291
 C    -4.226125    -2.157306    -0.599991
 H    -3.573758    -2.963956    -0.217609
 H    -4.164093    -2.232941    -1.700799
 C    -5.657992    -2.407252    -0.150776
 H    -5.713277    -2.313384     0.948425
 H    -6.309334    -1.609715    -0.550136
 C    -6.191110    -3.765824    -0.576322
 H    -7.226493    -3.923407    -0.238169
 H    -5.577681    -4.582106    -0.160886
 H    -6.178842    -3.873808    -1.672920
 C     0.063673    -2.656949    -2.250178
 H     0.357263    -1.887625    -2.970396
 C     0.101333    -3.544457    -0.007773
 H     0.457045    -3.508308     1.024746
 C    -0.804110    -3.676352    -2.629110
 H    -1.162652    -3.729733    -3.659992
 C    -0.794384    -4.558618    -0.367881
 C    -1.283013    -5.553940     0.644629
 H    -1.136468    -6.587731     0.295639
 H    -0.760393    -5.442834     1.605081
 H    -2.361896    -5.427260     0.833108
 C    -1.240333    -4.612220    -1.693390
 H    -1.942164    -5.395145    -1.994159
 H     3.381840    -2.647264    -1.036329
 H     2.941911    -1.593768    -2.391423
 C     4.308848    -0.673157    -0.987532
 H     3.960735     0.374093    -1.029071
 H     4.642630    -0.841679     0.050997
 C     5.489660    -0.847126    -1.932023
 H     5.153658    -0.640525    -2.964156
 H     5.818404    -1.902675    -1.925705
 C     6.669190     0.054365    -1.595942
 H     6.328663     1.104787    -1.596939
 H     6.999862    -0.151310    -0.562118
 C     7.841844    -0.104796    -2.549939
 H     8.677388     0.559821    -2.282593
 H     7.547497     0.130913    -3.585246
 H     8.224117    -1.138485    -2.544979
 H     0.951675    -1.607918     1.773180
 H     2.621007    -2.126865     1.470764
 C     2.356012    -0.004187     1.946900
 H     3.341408     0.298595     1.556463
 H     1.659473     0.797226     1.642046
 C     2.398160    -0.082347     3.464927
 H     3.140966    -0.838421     3.780483
 H     1.420640    -0.442863     3.830234
 C     2.710567     1.250228     4.129285
 H     3.675971     1.633258     3.753836
 H     1.953675     1.988868     3.811502
 C     2.744610     1.167495     5.646492
 H     2.936204     2.148892     6.106845
 H     3.531840     0.478642     5.993074
 H     1.787685     0.790561     6.043598
