  96
scf done:    -2610.113213
 C    -1.200384     0.838300    -3.301963
 H    -0.796951     0.664846    -4.311586
 H    -2.209730     0.401206    -3.293245
 C    -1.259704     2.331284    -3.022751
 H    -1.781909     2.882214    -3.827937
 H    -1.804492     2.555166    -2.090629
 H    -0.254395     2.780417    -2.938228
Rh     0.060117     0.049022    -1.817458
 C    -1.514119     1.139576     1.264416
 C    -3.384775     0.592283    -0.819078
 C    -2.050926    -1.579838     0.340485
 C     1.664341    -1.676054     0.902165
 C     3.484627    -0.415743    -0.911021
 C     2.025797     1.241718     0.765909
 P     1.770055    -0.262332    -0.255334
 P    -1.696822     0.117840    -0.256503
 C     0.817336    -0.954844    -3.152880
 O     1.157758    -1.728394    -3.938642
 C    -1.651131     0.661293     2.570307
 H    -1.897054    -0.385564     2.749914
 C    -1.188356     2.489015     1.071124
 H    -1.047762     2.862940     0.052514
 C    -1.455341     1.520372     3.651132
 H    -1.545275     1.134826     4.670043
 C    -1.036401     3.372284     2.142369
 C    -0.779855     4.831597     1.909142
 H    -0.421449     5.017802     0.887744
 H    -1.704075     5.416502     2.050438
 H    -0.032774     5.227396     2.612273
 C    -1.157357     2.862560     3.441202
 H    -1.015979     3.529516     4.296297
 C    -4.016934    -0.255114    -1.741422
 H    -3.514875    -1.171357    -2.064103
 C    -4.055151     1.746309    -0.410161
 H    -3.598884     2.416298     0.321167
 C    -5.277625     0.049654    -2.237041
 H    -5.750333    -0.629384    -2.952417
 C    -5.319923     2.047991    -0.915879
 H    -5.827790     2.955329    -0.576889
 C    -5.952620     1.212085    -1.838451
 C    -7.305066     1.542779    -2.397774
 H    -7.990974     0.684773    -2.322627
 H    -7.762974     2.392444    -1.872148
 H    -7.236364     1.807744    -3.465616
 C    -3.127810    -1.849149     1.195051
 H    -3.795629    -1.040670     1.503585
 C    -1.265841    -2.645901    -0.106660
 H    -0.456113    -2.437205    -0.810953
 C    -3.364991    -3.146004     1.641600
 H    -4.205147    -3.338252     2.315001
 C    -1.514787    -3.941024     0.334236
 H    -0.880847    -4.757057    -0.021755
 C    -2.552673    -4.211719     1.232505
 C    -2.773556    -5.602281     1.749784
 H    -2.694695    -6.348275     0.944791
 H    -2.011318    -5.860743     2.504181
 H    -3.759722    -5.709389     2.223161
 C     2.183836    -2.919663     0.516508
 H     2.768081    -3.008754    -0.402471
 C     0.898947    -1.595367     2.069409
 H     0.461821    -0.638843     2.360436
 C     1.955543    -4.041978     1.307092
 H     2.372222    -5.007066     1.008089
 C     0.647897    -2.719208     2.862933
 C    -0.244798    -2.615635     4.064615
 H    -0.165893    -1.629108     4.544035
 H    -1.297416    -2.754739     3.764651
 H    -0.009480    -3.384711     4.814459
 C     1.196598    -3.944014     2.472015
 H     1.017635    -4.834152     3.081711
 C     3.771851    -0.016361    -2.216600
 H     2.958639     0.317418    -2.865227
 C     4.545072    -0.812327    -0.083751
 H     4.348898    -1.109162     0.949641
 C     5.082378    -0.032366    -2.692486
 H     5.282544     0.283176    -3.720075
 C     5.847527    -0.832829    -0.565268
 H     6.659344    -1.150058     0.095737
 C     6.141258    -0.446885    -1.881434
 C     7.548891    -0.496577    -2.398137
 H     8.259379    -0.078529    -1.668853
 H     7.859832    -1.536357    -2.593150
 H     7.653789     0.062328    -3.338565
 C     2.420424     1.258589     2.106426
 H     2.532086     0.323910     2.659286
 C     1.917770     2.459239     0.083948
 H     1.602733     2.457286    -0.965211
 C     2.678810     2.466514     2.748158
 H     2.970090     2.459181     3.802487
 C     2.211139     3.659472     0.722082
 H     2.134781     4.597665     0.165527
 C     2.589409     3.686590     2.068632
 C     2.908090     4.976948     2.765154
 H     2.599067     5.846255     2.167782
 H     2.408203     5.038276     3.744368
 H     3.990857     5.069600     2.950794
