 126
scf done:    -3747.722490
 C    -1.460478    -0.304938     3.104600
 H    -1.239308     0.343353     3.968373
 H    -2.451190     0.012722     2.751106
 C    -1.543828    -1.745244     3.579515
 H    -0.579084    -2.108865     3.971232
 H    -2.286812    -1.877054     4.391810
 H    -1.847663    -2.425670     2.767501
Rh     0.032227    -0.088608     1.593055
 C    -2.606703    -1.535740     0.058507
 C    -3.178361     1.308918     0.682713
 C    -1.860249     0.781324    -1.654181
 C     1.892459     1.169241    -1.101995
 C     3.577031     0.024146     1.011098
 C     2.314407    -1.779343    -0.626863
 P     1.911339    -0.163806     0.169134
 P    -1.842682     0.149509     0.108945
 C     1.005180     0.639065     2.932998
 O     1.544316     1.269366     3.748782
 C    -1.959893    -2.488284    -0.751662
 O    -0.885312    -2.045996    -1.424775
 C    -0.356457    -2.822854    -2.458908
 H     0.551455    -2.308106    -2.783112
 H    -0.070508    -3.830643    -2.120918
 H    -1.073438    -2.908992    -3.294575
 C    -3.677259    -1.979888     0.856067
 O    -4.259907    -1.076339     1.665704
 C    -5.223164    -1.473238     2.593541
 H    -5.485078    -0.573560     3.165283
 H    -4.831882    -2.239530     3.284957
 H    -6.135325    -1.862467     2.105916
 C    -4.123870    -3.308510     0.795215
 H    -4.959268    -3.637526     1.411683
 C    -2.423080    -3.805992    -0.846128
 H    -1.937478    -4.518726    -1.511004
 C    -3.503232    -4.203471    -0.066292
 H    -3.862417    -5.233949    -0.124118
 C    -4.470210     1.219547     0.127649
 O    -4.636199     0.287451    -0.825607
 C    -5.917219    -0.058206    -1.251387
 H    -5.799957    -0.927823    -1.910354
 H    -6.566379    -0.339445    -0.403495
 H    -6.402654     0.757744    -1.816329
 C    -2.952324     2.309424     1.649153
 O    -1.705567     2.459143     2.111461
 C    -1.467678     3.178597     3.284466
 H    -0.423225     2.981679     3.557684
 H    -2.120444     2.841819     4.107682
 H    -1.607385     4.266245     3.139655
 C    -4.001529     3.133542     2.090426
 H    -3.818119     3.894521     2.847884
 C    -5.516846     2.042530     0.557054
 H    -6.511755     1.952176     0.122643
 C    -5.269001     2.988659     1.545325
 H    -6.080153     3.636364     1.887504
 C    -2.395925     0.194293    -2.822140
 O    -2.949782    -1.028568    -2.730559
 C    -3.595072    -1.597718    -3.825104
 H    -3.985186    -2.564780    -3.479120
 H    -4.434247    -0.973954    -4.182948
 H    -2.908571    -1.777360    -4.672867
 C    -1.414970     2.113862    -1.761640
 O    -0.990335     2.677259    -0.615838
 C    -1.086131     4.063998    -0.460124
 H    -0.874205     4.263420     0.596952
 H    -2.102779     4.420557    -0.698879
 H    -0.350094     4.600333    -1.080570
 C    -1.451016     2.825674    -2.965125
 H    -1.084406     3.849930    -3.006815
 C    -2.397368     0.889480    -4.041241
 H    -2.801026     0.421150    -4.937902
 C    -1.926903     2.196374    -4.103607
 H    -1.946547     2.732872    -5.055452
 C     1.704984     1.046960    -2.486281
 O     1.461129    -0.182814    -2.988823
 C     1.293520    -0.323354    -4.369613
 H     1.148067    -1.394198    -4.561316
 H     0.406393     0.226070    -4.728994
 H     2.183839     0.013577    -4.929577
 C     2.031822     2.469502    -0.574871
 O     2.129936     2.528770     0.762544
 C     2.349978     3.739720     1.417649
 H     2.389426     3.500719     2.487766
 H     1.532101     4.458646     1.236488
 H     3.305406     4.202372     1.111640
 C     2.109111     3.597561    -1.394548
 H     2.263701     4.587768    -0.966779
 C     1.780169     2.175141    -3.319162
 H     1.641785     2.078495    -4.394031
 C     1.997667     3.431064    -2.771147
 H     2.057490     4.301379    -3.429667
 C     4.645831     0.886040     0.678427
 O     4.542876     1.626282    -0.440761
 C     5.503903     2.588123    -0.744983
 H     5.137331     3.112943    -1.637390
 H     5.633747     3.322267     0.070543
 H     6.488073     2.136811    -0.967760
 C     3.762880    -0.809586     2.133877
 O     2.794530    -1.713379     2.356401
 C     2.635706    -2.269728     3.629562
 H     1.660077    -2.770663     3.628548
 H     2.631156    -1.490862     4.409898
 H     3.423150    -3.010693     3.855541
 C     4.892781    -0.721402     2.955511
 H     4.991240    -1.364927     3.828865
 C     5.785665     0.970955     1.491620
 H     6.594777     1.652016     1.231843
 C     5.894094     0.179571     2.627923
 H     6.784138     0.256581     3.257062
 C     1.732987    -2.972162    -0.155736
 O     0.753808    -2.878767     0.755258
 C     0.285767    -4.041094     1.379013
 H    -0.443117    -3.712413     2.126482
 H    -0.223461    -4.714552     0.669529
 H     1.105126    -4.588456     1.877276
 C     3.364839    -1.879299    -1.560764
 O     3.960595    -0.724031    -1.885858
 C     4.977465    -0.692899    -2.837297
 H     5.260591     0.361620    -2.946824
 H     4.637085    -1.076171    -3.815955
 H     5.861274    -1.272554    -2.516538
 C     3.771118    -3.113097    -2.081468
 H     4.570726    -3.174440    -2.818780
 C     2.171242    -4.217263    -0.640276
 H     1.723839    -5.139799    -0.274363
 C     3.166575    -4.271691    -1.605484
 H     3.489916    -5.243033    -1.988317
