  96
scf done:    -2610.112082
 C     1.474152     0.843676     3.083268
 H     1.328701     0.461692     4.105706
 H     2.506950     0.588119     2.805707
 C     1.278959     2.352686     3.055363
 H     0.253373     2.647291     3.333786
 H     1.961513     2.870572     3.756570
 H     1.480693     2.777863     2.056422
Rh     0.046469     0.158442     1.698988
 C     2.142788     1.010500    -1.036800
 C     3.363460    -0.833209     0.814017
 C     1.384476    -1.825827    -0.824370
 C    -2.147619    -1.163914    -0.929226
 C    -3.348459     0.725957     0.853966
 C    -1.465178     1.685048    -0.957311
 P    -1.708701     0.242740     0.157118
 P     1.722172    -0.311489     0.156647
 C    -0.927569    -0.476059     3.129195
 O    -1.444556    -1.058915     3.979885
 C     1.594449     1.079359    -2.321010
 H     0.978429     0.263176    -2.699241
 C     2.901335     2.091002    -0.564969
 H     3.313189     2.056064     0.448422
 C     1.823420     2.199107    -3.116896
 H     1.380403     2.252003    -4.113889
 C     3.149417     3.214471    -1.357210
 C     3.997640     4.340747    -0.842030
 H     3.942162     4.417162     0.253560
 H     5.057605     4.189034    -1.105985
 H     3.689915     5.306095    -1.269716
 C     2.598645     3.253338    -2.644135
 H     2.769616     4.128890    -3.276675
 C     3.368519    -1.621348     1.968602
 H     2.427049    -1.806572     2.494014
 C     4.565332    -0.590670     0.142437
 H     4.565447     0.012784    -0.769024
 C     4.566577    -2.152459     2.438554
 H     4.569540    -2.768728     3.340890
 C     5.777164    -1.108742     0.610432
 C     7.066449    -0.820696    -0.103681
 H     7.649787    -1.740068    -0.266091
 H     6.888336    -0.353253    -1.082374
 H     7.700041    -0.135131     0.482811
 C     5.759919    -1.895447     1.768371
 H     6.696746    -2.312864     2.148711
 C     2.024895    -2.116541    -2.032626
 H     2.701452    -1.391511    -2.490140
 C     0.562757    -2.788674    -0.230026
 H     0.070127    -2.537665     0.715582
 C     1.805321    -3.347216    -2.647211
 H     2.291789    -3.572280    -3.599724
 C     0.365666    -4.040579    -0.816986
 C    -0.466645    -5.086869    -0.136959
 H     0.174056    -5.844650     0.343889
 H    -1.101995    -4.644175     0.642312
 H    -1.116044    -5.611634    -0.853249
 C     0.985640    -4.298858    -2.045040
 H     0.828838    -5.265074    -2.533241
 C    -1.598156    -1.326194    -2.205410
 H    -0.947783    -0.558045    -2.624251
 C    -2.956780    -2.179936    -0.405972
 H    -3.376870    -2.067843     0.598263
 C    -1.881111    -2.470561    -2.944989
 H    -1.445378    -2.592305    -3.939114
 C    -3.261792    -3.327943    -1.143240
 C    -4.135595    -4.399423    -0.558373
 H    -3.551181    -5.076344     0.086856
 H    -4.935916    -3.971196     0.062611
 H    -4.600242    -5.013679    -1.342894
 C    -2.713384    -3.457953    -2.424266
 H    -2.939361    -4.347716    -3.018546
 C    -3.387741     1.397253     2.076837
 H    -2.461125     1.551007     2.635467
 C    -4.537168     0.546159     0.134510
 H    -4.513921     0.031968    -0.829886
 C    -4.603310     1.865761     2.574834
 H    -4.630021     2.386950     3.534815
 C    -5.762186     1.002954     0.624111
 C    -7.031965     0.793967    -0.149619
 H    -7.512170     1.754760    -0.394388
 H    -6.845177     0.260450    -1.092056
 H    -7.761397     0.207573     0.431604
 C    -5.778515     1.666012     1.859303
 H    -6.728370     2.030337     2.261348
 C    -2.104282     1.845363    -2.190149
 H    -2.749249     1.058673    -2.586798
 C    -0.673356     2.723836    -0.456105
 H    -0.181968     2.590665     0.513804
 C    -1.916481     3.020717    -2.914540
 H    -2.403752     3.142240    -3.885320
 C    -0.499964     3.918951    -1.157419
 C     0.308809     5.041463    -0.577575
 H    -0.347963     5.805723    -0.129751
 H     0.985418     4.681177     0.209397
 H     0.915028     5.539292    -1.348560
 C    -1.122884     4.045396    -2.404567
 H    -0.986924     4.964226    -2.982186
