  82
scf done:    -2151.245337
 C    -0.595708     1.573819     3.201701
 H    -0.236257     1.306675     4.207228
 H    -0.167442     2.562085     2.993925
 C    -2.115797     1.650658     3.203317
 H    -2.492568     2.401685     3.923612
 H    -2.524602     1.932181     2.216963
 H    -2.577104     0.687559     3.475718
Rh    -0.175081     0.106420     1.736622
 O    -0.038141     1.649269    -1.379151
 C     0.081348     3.564038     0.598452
 C     2.268473     1.634067    -0.168812
 O     0.287101    -1.850499    -1.183371
 C    -0.068459    -3.371571     1.089351
 C    -2.185154    -1.761603    -0.340990
 P    -0.459908    -1.706517     0.327803
 P     0.466016     1.764130     0.236758
 C     0.364450    -0.919825     3.163487
 O     0.874624    -1.492510     4.025003
 C    -1.309036     1.366860    -1.742570
 C    -2.418061     1.656128    -0.944424
 H    -2.286229     2.133793     0.027646
 C    -1.503403     0.758401    -2.987901
 H    -0.628096     0.544160    -3.602507
 C    -3.697830     1.312606    -1.380880
 H    -4.552301     1.537300    -0.736859
 C    -2.783546     0.421970    -3.406072
 H    -2.914615    -0.065524    -4.376352
 C    -3.908831     0.681179    -2.608107
 C    -5.282560     0.278265    -3.060238
 H    -6.056553     0.652889    -2.375743
 H    -5.381887    -0.818800    -3.106602
 H    -5.506451     0.664769    -4.066826
 H    -0.857606     3.502798     1.176599
 C     1.126391     4.214677     1.503665
 H     0.735378     5.169590     1.889163
 H     1.389812     3.591596     2.369354
 H     2.051930     4.436965     0.953988
 C    -0.181306     4.413318    -0.640814
 H    -1.002550     4.019070    -1.254116
 H    -0.457039     5.433949    -0.328956
 H     0.707857     4.489467    -1.281591
 H     2.261238     0.646578    -0.652651
 C     2.793624     2.627312    -1.196502
 H     3.793400     2.303144    -1.528136
 H     2.144649     2.666212    -2.082188
 H     2.897292     3.644195    -0.790024
 C     3.147470     1.511169     1.069177
 H     2.721213     0.786365     1.779711
 H     4.146428     1.156270     0.770912
 H     3.276642     2.469445     1.591970
 C     1.604230    -1.616414    -1.396175
 C     1.980555    -1.184822    -2.672772
 H     1.204018    -1.063294    -3.429271
 C     2.584590    -1.782389    -0.415392
 H     2.311043    -2.099949     0.591231
 C     3.311261    -0.901709    -2.948622
 H     3.583884    -0.551388    -3.948272
 C     3.917809    -1.497725    -0.711506
 H     4.669286    -1.622647     0.072686
 C     4.309272    -1.043869    -1.972541
 C     5.740180    -0.709416    -2.279977
 H     6.116625    -1.293177    -3.134935
 H     6.393613    -0.913862    -1.420274
 H     5.854882     0.355267    -2.541197
 H     0.847576    -3.156708     1.666472
 C    -1.137686    -3.781088     2.098062
 H    -0.764328    -4.608932     2.720711
 H    -1.410342    -2.957403     2.774642
 H    -2.052276    -4.130610     1.596750
 C     0.254109    -4.486181     0.101960
 H     1.059858    -4.205727    -0.590165
 H     0.583505    -5.380061     0.656030
 H    -0.619548    -4.772283    -0.498662
 H    -2.135927    -0.901252    -1.025425
 C    -2.550372    -2.979676    -1.176303
 H    -3.498969    -2.785956    -1.703238
 H    -1.782884    -3.190689    -1.933909
 H    -2.696191    -3.880479    -0.561323
 C    -3.222036    -1.427418     0.724811
 H    -2.929788    -0.535113     1.300012
 H    -4.188903    -1.215844     0.241928
 H    -3.375188    -2.252057     1.435401
