  88
scf done:    -4591.643018
 C    -2.174256    -2.870865    -1.524321
 H    -2.347844    -3.945337    -1.361050
 H    -3.158783    -2.390131    -1.427524
 C    -1.593508    -2.650883    -2.914141
 H    -2.187586    -3.170146    -3.689036
 H    -1.567368    -1.585417    -3.195462
 H    -0.561287    -3.029828    -3.004011
Rh    -0.791131    -2.127623    -0.100644
 C    -0.181716     0.821284    -2.005154
 O    -2.690266     0.363189    -1.499661
 O    -1.273858     0.975404     0.541266
 C     0.835160    -1.446113     2.977406
 O     2.350361    -2.350486     1.011181
 O     1.495116     0.059967     0.785601
 P     0.945119    -1.463138     1.173084
 P    -1.235477    -0.023762    -0.798322
 C    -1.169642    -3.651641     0.923021
 O    -1.509908    -4.491716     1.625012
 C     0.960264     0.134742    -2.434234
 H     1.165781    -0.871218    -2.060131
 C    -0.454007     2.101484    -2.498091
 H    -1.363190     2.621445    -2.189635
 C     1.828345     0.740312    -3.337628
 H     2.709506     0.198269    -3.688328
 C     0.428837     2.734579    -3.378587
 C     0.140371     4.127122    -3.859176
 H    -0.765765     4.149982    -4.485483
 H    -0.036432     4.808353    -3.011975
 H     0.970756     4.529941    -4.455387
 C     1.569773     2.033948    -3.790348
 H     2.264840     2.510390    -4.487438
 C    -3.913994     0.011210    -1.006464
 C    -4.990751     0.114771    -1.888621
 H    -4.800364     0.444002    -2.911439
 C    -4.121385    -0.410163     0.309646
 H    -3.281023    -0.500045     0.999659
 C    -6.274201    -0.207477    -1.464132
 H    -7.121099    -0.132303    -2.147865
 C    -5.406689    -0.741171     0.731239
 H    -5.578221    -1.082184     1.753287
 C    -6.478016    -0.637838    -0.152765
Cl    -8.076430    -1.044406     0.379280
 C    -1.338980     2.342658     0.470939
 C    -2.564321     2.984114     0.289876
 H    -3.480193     2.394302     0.226161
 C    -0.162284     3.081921     0.584661
 H     0.780561     2.557866     0.737300
 C    -2.605220     4.371269     0.174513
 H    -3.553542     4.887796     0.018454
 C    -0.200755     4.467422     0.473514
 H     0.715192     5.055777     0.546604
 C    -1.421465     5.104581     0.251501
Cl    -1.465256     6.826623     0.062669
 C     1.520947    -2.344252     3.797081
 H     2.208691    -3.069522     3.358320
 C    -0.050872    -0.511287     3.528221
 H    -0.591798     0.170389     2.863744
 C     1.321696    -2.283903     5.175985
 H     1.851811    -2.978968     5.831509
 C    -0.246749    -0.439719     4.908087
 C    -1.189084     0.563654     5.505596
 H    -1.584998     1.246626     4.741485
 H    -2.044303     0.063654     5.987791
 H    -0.690153     1.168859     6.278247
 C     0.454560    -1.341819     5.722005
 H     0.312383    -1.305105     6.805810
 C     2.826743    -2.499553    -0.272028
 C     3.997972    -1.834069    -0.630082
 H     4.530153    -1.248176     0.120643
 C     2.131439    -3.264406    -1.210407
 H     1.220307    -3.789007    -0.910136
 C     4.456006    -1.896154    -1.942438
 H     5.361177    -1.364558    -2.239696
 C     2.584266    -3.323205    -2.526132
 H     2.038319    -3.898367    -3.275413
 C     3.734537    -2.623491    -2.888238
Cl     4.262967    -2.635056    -4.539040
 C     2.688402     0.660577     1.069127
 C     3.171110     1.548488     0.103270
 H     2.601099     1.686483    -0.817239
 C     3.408582     0.444080     2.244734
 H     3.035375    -0.242890     3.003060
 C     4.371198     2.218730     0.307904
 H     4.755264     2.910111    -0.443812
 C     4.615418     1.110743     2.445233
 H     5.187969     0.946717     3.359469
 C     5.093845     1.994446     1.479994
Cl     6.595191     2.820083     1.736298
