  94
scf done:    -2384.064140
 C     0.698724    -2.937488    -1.676255
 H     0.506123    -4.003099    -1.466245
 H    -0.204976    -2.568235    -2.183897
 C     1.881491    -2.792026    -2.625353
 H     2.788803    -3.276831    -2.230823
 H     1.678932    -3.239356    -3.617371
 H     2.144079    -1.734307    -2.800822
Rh     1.119965    -1.823702     0.077969
 C    -1.512796     0.297834    -1.336626
 C    -2.205573    -2.368602    -0.296708
 C    -1.730218    -0.160482     1.537827
 C     1.636474    -0.773918     3.471538
 C     3.911862    -0.567614     1.747986
 C     1.778481     1.378107     1.544683
 P     2.046528    -0.454879     1.693554
 P    -1.043058    -0.925510    -0.039907
 C     2.189213    -3.237203     0.556251
 O     2.726439    -4.179766     0.954000
 H    -0.998882     1.227736    -1.044092
 C    -1.117284    -0.097044    -2.749005
 H    -1.668832    -0.980844    -3.106177
 H    -0.045527    -0.327625    -2.815390
 H    -2.591095     0.506269    -1.267403
 H    -1.326230     0.729542    -3.445168
 H    -1.907418    -2.811711    -1.257111
 H    -1.907728    -3.091610     0.477475
 C    -3.673502    -2.096552    -0.255961
 C    -4.416969    -2.328803     0.907684
 H    -3.926974    -2.762071     1.783796
 C    -4.339735    -1.578646    -1.376023
 H    -3.777600    -1.419218    -2.300163
 C    -5.775784    -2.022878     0.952101
 H    -6.344572    -2.209094     1.866237
 C    -5.699394    -1.259371    -1.348629
 C    -6.375896    -0.662254    -2.548099
 H    -7.372806    -1.099210    -2.708424
 H    -6.514493     0.423971    -2.417660
 H    -5.784069    -0.812392    -3.461879
 C    -6.412000    -1.484903    -0.162885
 H    -7.478733    -1.247870    -0.120501
 H    -2.347869    -0.947648     1.997553
 H    -0.864754    -0.022915     2.197186
 C    -2.504502     1.125138     1.459599
 C    -1.967321     2.299797     1.995735
 H    -0.996548     2.266270     2.494715
 C    -3.776275     1.191332     0.876576
 H    -4.230351     0.282538     0.480021
 C    -2.663713     3.503949     1.920838
 H    -2.229209     4.410657     2.349703
 C    -4.488712     2.389933     0.785481
 C    -5.830959     2.423256     0.112977
 H    -6.479420     3.202680     0.538938
 H    -5.724093     2.639556    -0.963673
 H    -6.343443     1.454602     0.202122
 C    -3.913736     3.553411     1.310950
 H    -4.457691     4.500388     1.254403
 H     1.940473    -1.820818     3.639021
 C     2.222316     0.146582     4.530391
 H     1.905678     1.191187     4.388714
 H     3.322331     0.128995     4.533580
 H     0.535934    -0.784034     3.526626
 H     1.891888    -0.159109     5.535170
 H     4.279489     0.053619     2.579082
 H     4.140454    -1.619291     1.980147
 C     4.542496    -0.144749     0.456137
 C     4.675730    -1.044268    -0.608795
 H     4.396379    -2.089666    -0.472123
 C     4.915055     1.188365     0.255937
 H     4.829980     1.896844     1.085873
 C     5.141293    -0.601501    -1.843627
 H     5.237518    -1.310840    -2.669101
 C     5.364630     1.654508    -0.983002
 C     5.655066     3.111571    -1.190030
 H     4.728866     3.650081    -1.453940
 H     6.057813     3.579088    -0.279508
 H     6.374189     3.271238    -2.006250
 C     5.472684     0.738529    -2.034328
 H     5.822797     1.079936    -3.012347
 H     0.950130     1.624337     2.226877
 H     2.662328     1.894445     1.956821
 C     1.460183     1.917752     0.173152
 C     1.898933     1.306824    -1.008598
 H     2.468093     0.374580    -0.973107
 C     0.715008     3.096396     0.073028
 H     0.364025     3.583359     0.986300
 C     1.609672     1.882962    -2.242134
 H     1.971436     1.401680    -3.153733
 C     0.384211     3.670497    -1.159469
 C    -0.474400     4.900595    -1.210178
 H    -0.037281     5.720635    -0.618812
 H    -0.606487     5.259320    -2.240525
 H    -1.472475     4.695259    -0.789435
 C     0.852818     3.050478    -2.321878
 H     0.614414     3.482454    -3.297734
