  84
scf done:    -3420.728406
 C     1.459483    -3.410942    -2.408317
 H     1.474668    -3.609159    -3.485807
 H     2.488938    -3.392617    -2.032049
 C     0.513191    -4.296996    -1.629990
 H    -0.094854    -4.955163    -2.265939
 H     1.015012    -4.904923    -0.860891
 H    -0.246519    -3.688600    -1.038496
Rh     0.282369    -1.791927    -1.825673
 O     2.292580    -1.362017     0.993939
 O     3.436918    -1.203733    -1.196442
 O     1.807639     0.672900    -0.466805
 O    -1.786353     0.830594    -1.841160
 O    -2.765194    -1.286198    -0.790438
 O    -1.094372     0.134280     0.522449
 P    -1.331849    -0.493025    -0.976105
 P     1.933155    -0.967933    -0.599143
 C    -0.183010    -1.443163    -3.615519
 O    -0.388343    -1.104443    -4.692273
 C     1.312338    -1.697956     1.890238
 C     0.900598    -3.026346     1.995359
 H     1.348428    -3.774715     1.339843
 C     0.755026    -0.721396     2.716249
 H     1.062845     0.319230     2.604690
 C    -0.060296    -3.385933     2.938332
 H    -0.395822    -4.418955     3.045523
 C    -0.205451    -1.073182     3.659011
 H    -0.662864    -0.325506     4.308959
 C    -0.597130    -2.402405     3.759163
 F    -1.529677    -2.742195     4.654599
 C     4.654520    -0.799303    -0.694613
 C     5.201784    -1.400806     0.436896
 H     4.648247    -2.188293     0.946858
 C     5.350180     0.197746    -1.376614
 H     4.904099     0.640760    -2.267861
 C     6.435527    -0.966836     0.915992
 H     6.886775    -1.411304     1.804836
 C     6.581663     0.633010    -0.900518
 H     7.139776     1.423579    -1.404678
 C     7.105844     0.050189     0.248006
 F     8.280907     0.471354     0.713491
 C     2.751712     1.604052    -0.108273
 C     2.950883     2.669143    -0.986018
 H     2.377917     2.699508    -1.914768
 C     3.462226     1.533764     1.091444
 H     3.308899     0.692438     1.765662
 C     3.881711     3.658319    -0.681151
 H     4.060730     4.499028    -1.353713
 C     4.401788     2.514865     1.391690
 H     4.987062     2.472855     2.311704
 C     4.603370     3.563922     0.502414
 F     5.504798     4.500199     0.792400
 C    -3.074242     1.246587    -2.091325
 C    -3.604477     2.332800    -1.397272
 H    -3.001853     2.837943    -0.642619
 C    -3.824569     0.593781    -3.069453
 H    -3.384956    -0.245669    -3.610417
 C    -4.901953     2.758852    -1.670409
 H    -5.342293     3.605494    -1.141097
 C    -5.123676     1.013511    -3.340333
 H    -5.734664     0.518840    -4.097241
 C    -5.648274     2.090695    -2.633807
 F    -6.891005     2.493783    -2.890994
 C    -3.584419    -1.265117     0.313082
 C    -4.810145    -0.604976     0.253439
 H    -5.104034    -0.094618    -0.664238
 C    -3.190442    -1.930962     1.472858
 H    -2.224310    -2.436536     1.498206
 C    -5.640902    -0.597877     1.371392
 H    -6.605634    -0.087959     1.355792
 C    -4.012569    -1.917239     2.596298
 H    -3.710814    -2.411368     3.520987
 C    -5.230035    -1.247901     2.529924
 F    -6.021785    -1.229518     3.600854
 C    -1.413773     1.374847     1.014664
 C    -2.431520     1.497963     1.959655
 H    -2.988333     0.613657     2.269333
 C    -0.678895     2.489342     0.609921
 H     0.116081     2.363453    -0.123829
 C    -2.729472     2.750156     2.491073
 H    -3.523667     2.876819     3.228783
 C    -0.977003     3.742261     1.138658
 H    -0.418859     4.630620     0.838177
 C    -2.001975     3.858185     2.071311
 F    -2.289336     5.055625     2.577806
