  80
scf done:    -3840.502610
 C    -2.542343     0.192211    -3.045240
 H    -2.920612    -0.739208    -3.495730
 H    -3.396021     0.631599    -2.503298
 C    -2.057992     1.152973    -4.119686
 H    -1.294487     0.697959    -4.771024
 H    -2.886122     1.488256    -4.771504
 H    -1.610283     2.068045    -3.693476
Rh    -0.958860    -0.150949    -1.697640
 O    -2.796040     1.008008     1.009218
 C    -4.180350    -0.729310    -0.416584
 C    -2.042398    -1.566565     1.222502
 O     1.559323    -1.690147    -0.245308
 C     2.328098     0.779429    -1.279596
 C     1.125448     0.541144     1.262263
 P     0.979812    -0.120991    -0.435936
 P    -2.457507    -0.289430    -0.013374
 C    -0.141496    -1.161313    -3.034127
 O     0.289423    -1.963088    -3.737549
 C    -2.077386     2.164181     1.002846
 C    -1.571080     2.737149    -0.168209
 H    -1.755589     2.260704    -1.136217
 C    -1.888470     2.803790     2.228334
 H    -2.297667     2.346397     3.130511
 C    -0.832507     3.915634    -0.101144
 H    -0.415422     4.357319    -1.007677
 C    -1.172598     3.993198     2.294182
 H    -1.008062     4.488444     3.252297
 C    -0.626947     4.532362     1.130824
Cl     0.357178     5.957795     1.228458
 C    -4.399033    -1.885083    -1.176639
 H    -3.547776    -2.483042    -1.514373
 C    -5.270078     0.045564    -0.012583
 H    -5.100931     0.948253     0.576670
 C    -5.688399    -2.272456    -1.519161
 H    -5.880507    -3.169326    -2.110446
 C    -6.567283    -0.330265    -0.356519
 H    -7.433432     0.260847    -0.053715
 C    -6.758128    -1.485495    -1.102842
 F    -7.994349    -1.848959    -1.432690
 C    -2.456837    -1.458394     2.554640
 H    -3.046102    -0.594385     2.867843
 C    -1.281601    -2.669519     0.820403
 H    -0.930896    -2.733716    -0.213209
 C    -2.099643    -2.431140     3.482208
 H    -2.401354    -2.365445     4.529246
 C    -0.926402    -3.654505     1.738503
 H    -0.322517    -4.515833     1.448263
 C    -1.337369    -3.516991     3.059473
 F    -0.990529    -4.444541     3.946582
 C     2.874831    -2.029703    -0.101769
 C     3.448253    -2.148731     1.165017
 H     2.843198    -1.956408     2.051317
 C     3.636752    -2.284139    -1.243740
 H     3.166418    -2.193145    -2.224755
 C     4.789461    -2.502593     1.288828
 H     5.250529    -2.597113     2.273229
 C     4.975854    -2.638401    -1.124007
 H     5.581557    -2.834534    -2.009981
 C     5.549080    -2.738886     0.143839
Cl     7.220132    -3.168685     0.297705
 C     3.604111     0.928437    -0.710129
 H     3.817867     0.514680     0.277178
 C     2.080311     1.344094    -2.537110
 H     1.088197     1.235888    -2.985056
 C     4.610649     1.603430    -1.388331
 H     5.609593     1.716767    -0.964017
 C     3.075232     2.036798    -3.221181
 H     2.893054     2.485467    -4.199051
 C     4.330984     2.149527    -2.637972
 F     5.289896     2.799903    -3.285472
 C     1.503965     1.872185     1.483828
 H     1.772307     2.515949     0.644429
 C     0.770229    -0.253400     2.361121
 H     0.471666    -1.291694     2.209318
 C     1.541582     2.398946     2.770087
 H     1.827106     3.437120     2.947749
 C     0.801223     0.263486     3.652254
 H     0.527830    -0.346195     4.515175
 C     1.186072     1.586258     3.838566
 F     1.205414     2.089032     5.070380
