  84
scf done:    -4861.843667
 C     1.243891    -4.181995    -1.495660
 H     1.280262    -4.651611    -2.484863
 H     2.261183    -4.111379    -1.093396
 C     0.228786    -4.793096    -0.557251
 H    -0.395629    -5.565168    -1.027513
 H     0.673612    -5.202149     0.363415
 H    -0.513418    -4.017705    -0.174373
Rh     0.132760    -2.420440    -1.398143
 O     2.064785    -1.383923     1.314528
 O     3.290941    -1.816748    -0.793417
 O     1.730857     0.247012    -0.617097
 O    -1.784977     0.198177    -2.178100
 O    -2.923124    -1.533857    -0.678534
 O    -1.227997     0.094371     0.318524
 P    -1.439270    -0.880587    -0.986469
 P     1.779253    -1.383071    -0.339475
 C    -0.246555    -2.519215    -3.239295
 O    -0.394033    -2.458795    -4.375241
 C     1.034912    -1.419555     2.218628
 C     0.532091    -2.649924     2.641157
 H     0.950903    -3.567049     2.224306
 C     0.516799    -0.232265     2.736454
 H     0.897988     0.724926     2.377853
 C    -0.482583    -2.697622     3.594938
 H    -0.889530    -3.646848     3.947937
 C    -0.497491    -0.272604     3.687695
 H    -0.925521     0.642622     4.099818
 C    -0.980757    -1.506059     4.106313
 F    -1.963801    -1.549055     5.010574
 C     4.507228    -1.345870    -0.352926
 C     4.973615    -1.636647     0.927323
 H     4.365899    -2.244649     1.596245
 C     5.279749    -0.592834    -1.235367
 H     4.900290    -0.397117    -2.238955
 C     6.192097    -1.111449     1.348727
 H     6.564722    -1.313600     2.354123
 C     6.494001    -0.063874    -0.815507
 H     7.091843     0.558196    -1.482974
 C     6.937327    -0.312533     0.483534
Cl     8.426812     0.383666     1.027466
 C     2.734111     1.175166    -0.493423
 C     3.036948     1.935949    -1.621698
 H     2.478072     1.758614    -2.542651
 C     3.420022     1.383313     0.704167
 H     3.181064     0.781651     1.579981
 C     4.060261     2.877305    -1.571475
 H     4.317657     3.468477    -2.451682
 C     4.453628     2.312264     0.751315
 H     5.025167     2.457433     1.669035
 C     4.777005     3.048117    -0.388167
Cl     6.092313     4.172077    -0.336702
 C    -3.036408     0.604015    -2.585063
 C    -3.520092     1.857078    -2.213089
 H    -2.912413     2.506902    -1.583764
 C    -3.793395    -0.236218    -3.401539
 H    -3.389487    -1.207264    -3.692218
 C    -4.779110     2.266362    -2.645335
 H    -5.182271     3.241640    -2.367573
 C    -5.054429     0.167745    -3.830391
 H    -5.669997    -0.470599    -4.466392
 C    -5.533864     1.414861    -3.443393
 F    -6.739888     1.803012    -3.852114
 C    -3.777603    -1.189406     0.339528
 C    -4.951684    -0.495427     0.055151
 H    -5.181130    -0.220600    -0.974780
 C    -3.470038    -1.558803     1.647951
 H    -2.543799    -2.098646     1.849196
 C    -5.812434    -0.148207     1.092840
 H    -6.732430     0.401119     0.887712
 C    -4.322672    -1.205064     2.689144
 H    -4.073684    -1.464952     3.718696
 C    -5.489634    -0.494567     2.405029
Cl    -6.547537    -0.035245     3.696994
 C    -1.488431     1.431224     0.470494
 C    -2.522316     1.836964     1.312863
 H    -3.134635     1.087967     1.814895
 C    -0.683063     2.372155    -0.170802
 H     0.124204     2.029460    -0.816713
 C    -2.767440     3.194520     1.497529
 H    -3.578189     3.525742     2.148137
 C    -0.927641     3.729765     0.012725
 H    -0.307540     4.476193    -0.485897
 C    -1.973888     4.135822     0.841633
Cl    -2.285777     5.824278     1.063890
