  92
scf done:    -3277.089385
 C     1.119007     0.124095    -3.610619
 H     1.148126     1.031320    -4.236925
 H     2.140661     0.048911    -3.198724
 C     0.843582    -1.099274    -4.475283
 H    -0.111444    -1.012079    -5.016257
 H     1.632448    -1.265546    -5.232535
 H     0.773827    -2.027054    -3.880831
Rh    -0.390417     0.361408    -2.107319
 O     0.916164    -0.290790     0.916251
 C     2.207610    -1.776596    -1.049524
 C     2.724602     1.058916    -0.672681
 O    -2.768655     1.661893     0.048867
 C    -3.704970    -0.247987    -1.486217
 C    -2.109463    -0.849293     0.810940
 P    -2.139822     0.272623    -0.650447
 P     1.349506    -0.160877    -0.705497
 C    -1.455367     1.002742    -3.495758
 O    -2.058324     1.453786    -4.360923
 C     1.653163    -0.844798     1.922834
 C     1.390915    -2.161385     2.310503
 H     0.612102    -2.726255     1.793503
 C     2.609212    -0.087497     2.602076
 H     2.768599     0.952514     2.313728
 C     2.113538    -2.734937     3.353762
 H     1.929685    -3.761688     3.674710
 C     3.336201    -0.658849     3.642531
 H     4.092118    -0.091127     4.187825
 C     3.085419    -1.979182     4.000481
 F     3.781354    -2.526668     4.993721
 H     1.731515    -2.505631    -0.376944
 H     1.892350    -2.042109    -2.068290
 C     3.704366    -1.811785    -0.938488
 C     4.496076    -1.500284    -2.051820
 H     4.014965    -1.264762    -3.005392
 C     4.348855    -2.130477     0.263285
 H     3.759037    -2.393729     1.142717
 C     5.885353    -1.488307    -1.972668
 H     6.506133    -1.248068    -2.837562
 C     5.737861    -2.123507     0.359876
 H     6.244255    -2.373590     1.293807
 C     6.490959    -1.796037    -0.760425
 F     7.819171    -1.783632    -0.673540
 H     3.496336     0.691355     0.020185
 H     3.173649     1.000078    -1.677970
 C     2.324522     2.473955    -0.356216
 C     1.295653     3.115552    -1.059296
 H     0.726197     2.552596    -1.811210
 C     3.016952     3.202489     0.616811
 H     3.841094     2.731613     1.160735
 C     0.963343     4.438982    -0.798479
 H     0.150268     4.936822    -1.329285
 C     2.696500     4.531537     0.891516
 H     3.226542     5.105359     1.653442
 C     1.667886     5.131340     0.178508
 F     1.339548     6.393549     0.444071
 C    -2.069990     2.611075     0.735067
 C    -0.896516     2.339675     1.440971
 H    -0.438863     1.351901     1.408293
 C    -2.603643     3.902547     0.746196
 H    -3.514134     4.100531     0.177836
 C    -0.280475     3.346067     2.179334
 H     0.639492     3.151450     2.732013
 C    -1.983611     4.912194     1.476425
 H    -2.382557     5.927863     1.494565
 C    -0.828492     4.619763     2.191627
 F    -0.224079     5.583629     2.887691
 H    -3.969779     0.598004    -2.139942
 H    -3.418002    -1.081326    -2.145408
 C    -4.829995    -0.635122    -0.577734
 C    -5.110870    -1.984562    -0.330692
 H    -4.527438    -2.757598    -0.837029
 C    -5.588820     0.336604     0.088653
 H    -5.374109     1.392891    -0.083077
 C    -6.114077    -2.362597     0.558053
 H    -6.338767    -3.412401     0.754486
 C    -6.595655    -0.024849     0.978672
 H    -7.192603     0.724151     1.502108
 C    -6.844386    -1.373717     1.204434
 F    -7.805749    -1.725199     2.057218
 H    -1.323389    -0.468921     1.479076
 H    -3.071085    -0.720830     1.331244
 C    -1.850593    -2.304723     0.527122
 C    -2.204752    -3.255122     1.495808
 H    -2.704021    -2.925299     2.410522
 C    -1.229650    -2.760853    -0.642315
 H    -0.949151    -2.041737    -1.425078
 C    -1.932723    -4.608150     1.320409
 H    -2.206498    -5.349354     2.073548
 C    -0.951382    -4.113594    -0.836638
 H    -0.468767    -4.469402    -1.748976
 C    -1.301875    -5.022608     0.151880
 F    -1.037401    -6.315697    -0.021993
