 106
scf done:    -2465.510880
 C    -1.395732    -2.858673    -2.236921
 H    -0.937335    -3.819145    -2.520937
 H    -2.223910    -3.137970    -1.562829
 C    -1.932104    -2.174406    -3.487605
 H    -2.633566    -2.819567    -4.050323
 H    -2.473381    -1.242427    -3.259011
 H    -1.120008    -1.903441    -4.181444
Rh     0.004551    -1.584338    -1.249529
 O    -1.591937     0.927948     0.436177
 C    -3.476868    -0.758413    -0.575575
 C    -1.715965    -1.406652     1.666069
 O     1.339173    -0.277210     1.441161
 C     3.290023    -0.602791    -0.503541
 C     1.450980     1.587640    -0.610895
 P     1.518372    -0.207716    -0.232916
 P    -1.733632    -0.699779    -0.014796
 C     1.278416    -2.770156    -1.878272
 O     2.052480    -3.567500    -2.177321
 C    -2.236867     2.022904    -0.053909
 C    -2.855837     2.845599     0.896278
 H    -2.811176     2.537797     1.942840
 C    -2.237167     2.376232    -1.414400
 C    -1.551391     1.572157    -2.481311
 H    -0.827384     2.197009    -3.027005
 H    -1.001107     0.701262    -2.090444
 H    -2.273001     1.197809    -3.224504
 C    -3.501830     4.013009     0.512687
 H    -3.980211     4.643254     1.265869
 C    -2.909812     3.554354    -1.772244
 H    -2.924901     3.838123    -2.828535
 C    -3.537779     4.367412    -0.836406
 H    -4.047145     5.278713    -1.156740
 H    -3.639914    -1.768949    -0.982045
 H    -3.524825    -0.082193    -1.442631
 C    -4.530828    -0.396884     0.461965
 H    -4.612157    -1.216553     1.195149
 H    -4.215037     0.493887     1.031178
 C    -5.917009    -0.116780    -0.126980
 H    -6.208645    -0.994772    -0.733950
 C    -6.937487     0.040978     0.994477
 H    -6.973297    -0.851766     1.638365
 H    -7.949745     0.210347     0.596222
 H    -6.682972     0.903629     1.632864
 C    -5.917166     1.110781    -1.033161
 H    -6.927593     1.313500    -1.420181
 H    -5.254242     0.991945    -1.903152
 H    -5.578023     2.005040    -0.484434
 H    -2.503858    -0.939187     2.277390
 H    -0.742709    -1.076632     2.058850
 C    -1.806237    -2.927567     1.662371
 H    -2.840976    -3.236580     1.432664
 H    -1.176578    -3.322438     0.843986
 C    -1.363528    -3.576081     2.977256
 H    -1.913595    -3.082342     3.801182
 C    -1.731327    -5.055248     2.985817
 H    -2.815141    -5.203746     2.858168
 H    -1.433052    -5.538769     3.928977
 H    -1.223416    -5.586492     2.163737
 C     0.130578    -3.387991     3.223209
 H     0.434442    -3.841430     4.179265
 H     0.424448    -2.328533     3.250841
 H     0.715294    -3.867068     2.420232
 C     2.151705     0.206779     2.427842
 C     3.314945    -0.488304     2.768607
 H     3.561843    -1.398819     2.220930
 C     1.752096     1.343944     3.151936
 C     0.485527     2.073835     2.821794
 H     0.676718     2.911196     2.129841
 H    -0.244863     1.420029     2.329577
 H     0.035360     2.502754     3.728508
 C     4.128632    -0.031143     3.800742
 H     5.038976    -0.578099     4.056647
 C     2.586085     1.776181     4.189464
 H     2.289287     2.659283     4.762503
 C     3.767615     1.112484     4.510319
 H     4.396365     1.478182     5.325078
 H     3.418624    -1.659531    -0.215649
 H     3.917288     0.001812     0.168598
 C     3.681446    -0.405325    -1.965521
 H     2.866416    -0.765562    -2.617177
 H     3.784797     0.673304    -2.180886
 C     4.974366    -1.117962    -2.367767
 H     4.824656    -2.195139    -2.166997
 C     5.224481    -0.952855    -3.861645
 H     4.376375    -1.330780    -4.453296
 H     6.126504    -1.497883    -4.179922
 H     5.368461     0.109433    -4.121678
 C     6.171464    -0.642752    -1.552440
 H     7.092142    -1.162086    -1.860214
 H     6.036892    -0.821716    -0.474878
 H     6.336853     0.439047    -1.693821
 H     0.470191     1.914386    -0.233252
 H     1.376169     1.625785    -1.710359
 C     2.566208     2.491844    -0.102813
 H     2.773077     2.281244     0.957757
 H     3.505425     2.272530    -0.640595
 C     2.257917     3.985425    -0.247244
 H     1.321440     4.181938     0.308946
 C     3.365301     4.814704     0.391574
 H     3.512640     4.539435     1.447741
 H     3.138200     5.891210     0.349623
 H     4.324181     4.656282    -0.129837
 C     2.025755     4.394413    -1.697150
 H     1.832659     5.475226    -1.777223
 H     1.162204     3.874711    -2.138956
 H     2.910561     4.167108    -2.315901
