 118
scf done:    -3518.817921
 C    -1.364201    -2.027538    -2.625436
 H    -0.737372    -2.722361    -3.209725
 H    -2.228750    -2.610386    -2.277448
 C    -1.800602    -0.849993    -3.482212
 H    -2.209165    -1.171472    -4.460262
 H    -2.578153    -0.247134    -2.987776
 H    -0.956709    -0.169253    -3.699688
Rh    -0.173939    -1.167022    -1.138873
 O    -2.837343     1.048609    -0.480601
 C    -3.567667    -1.508698    -0.489140
 C    -2.244932    -0.419725     1.723033
 O     2.327937    -0.468259     1.158125
 C     3.040769     0.288970    -1.332381
 C     1.274171     1.859584     0.183948
 P     1.576429     0.097379    -0.222120
 P    -2.103610    -0.431054    -0.131453
 C     0.641192    -2.798456    -0.893743
 O     0.930438    -3.850406    -0.498214
 C    -2.272153     2.266389    -0.320616
 C    -1.655999     2.897332    -1.334706
 H    -1.582458     2.394841    -2.301227
 C    -2.496755     2.936081     0.966673
 H    -3.132176     2.423254     1.686697
 C    -0.944594     4.191963    -1.125403
 H    -1.144044     4.886892    -1.959482
 C    -2.003224     4.152599     1.225881
 H    -2.233137     4.645184     2.176551
 C    -1.103467     4.878298     0.276597
 C    -1.472081     6.349383     0.186314
 H    -0.792365     6.886893    -0.494545
 H    -1.409504     6.832214     1.175402
 H    -2.499856     6.474027    -0.189566
 C    -3.471382    -2.813998     0.033160
 O    -2.343030    -3.071967     0.715028
 C    -2.039176    -4.374449     1.120901
 H    -1.016833    -4.342426     1.515406
 H    -2.728003    -4.727575     1.908606
 H    -2.063636    -5.078435     0.272225
 C    -4.701877    -1.195398    -1.263281
 O    -4.768963     0.024384    -1.825753
 C    -5.858036     0.362404    -2.627878
 H    -5.680167     1.389697    -2.971550
 H    -6.810845     0.336195    -2.068511
 H    -5.948333    -0.298613    -3.508612
 C    -5.716382    -2.147728    -1.454655
 H    -6.596803    -1.901848    -2.046334
 C    -4.476332    -3.767846    -0.159325
 H    -4.383657    -4.768231     0.261175
 C    -5.597125    -3.415423    -0.899861
 H    -6.392504    -4.147863    -1.057953
 C    -3.437785     0.031218     2.334404
 O    -4.443984     0.376441     1.513485
 C    -5.688970     0.736037     2.030506
 H    -6.340444     0.907796     1.164090
 H    -6.122666    -0.064932     2.654422
 H    -5.638454     1.665363     2.625913
 C    -1.232639    -0.918614     2.570654
 O    -0.186291    -1.511123     1.993313
 C     0.737922    -2.213131     2.775642
 H     1.392101    -2.747170     2.077813
 H     0.230387    -2.943676     3.429899
 H     1.356308    -1.536414     3.386818
 C    -1.352795    -0.832435     3.967824
 H    -0.550834    -1.191220     4.610753
 C    -3.562794     0.113032     3.727685
 H    -4.478358     0.487930     4.182807
 C    -2.506948    -0.304954     4.527968
 H    -2.596071    -0.237877     5.615247
 C     3.482456    -1.150697     1.299941
 C     4.240709    -0.881411     2.444118
 H     3.880178    -0.108388     3.125295
 C     3.921785    -2.126676     0.402080
 H     3.331932    -2.355832    -0.485265
 C     5.423187    -1.573648     2.678500
 H     6.005077    -1.347978     3.577327
 C     5.114471    -2.803617     0.648309
 H     5.446652    -3.559742    -0.068594
 C     5.888748    -2.546696     1.783728
 C     7.153541    -3.309943     2.054958
 H     7.894000    -2.690925     2.583562
 H     7.614907    -3.669090     1.123392
 H     6.960974    -4.194709     2.685460
 C     4.209197     0.918571    -0.855549
 O     4.129577     1.469223     0.365612
 C     5.272703     2.001421     0.969947
 H     4.956729     2.365013     1.955517
 H     6.052859     1.232981     1.104828
 H     5.684381     2.847620     0.392583
 C     3.047382    -0.215835    -2.645120
 O     1.880565    -0.683358    -3.119457
 C     1.858553    -1.443278    -4.296468
 H     0.833040    -1.816605    -4.400218
 H     2.550344    -2.300126    -4.236864
 H     2.112834    -0.833754    -5.181311
 C     4.215363    -0.193362    -3.419752
 H     4.222219    -0.605031    -4.428003
 C     5.378217     0.948450    -1.626436
 H     6.288450     1.405620    -1.241317
 C     5.367716     0.378702    -2.894009
 H     6.280216     0.393424    -3.495093
 C     1.047141     2.627134    -0.904804
 O     1.039248     2.005918    -2.104320
 C     1.354060     2.703114    -3.278312
 H     1.345603     1.957784    -4.083567
 H     0.609570     3.484148    -3.509502
 H     2.358430     3.156367    -3.224717
 C     1.096473     2.444216     1.522759
 O     1.274660     1.564362     2.528171
 C     0.958264     1.972506     3.824762
 H     1.095079     1.097716     4.473117
 H    -0.090885     2.309568     3.893966
 H     1.620362     2.786504     4.172509
 C     0.768960     3.741250     1.697458
 H     0.651463     4.148176     2.701683
 C     0.595955     4.041806    -0.856891
 H     1.208224     4.664510    -1.527410
 C     0.431667     4.642097     0.558553
 H     0.956214     5.605797     0.669341
