 104
scf done:    -2737.668184
 C     1.360192     0.836604    -3.152765
 H     0.980366     1.812410    -3.502154
 H     2.361083     1.032417    -2.729760
 C     1.521843    -0.109310    -4.335998
 H     0.580587    -0.251838    -4.889884
 H     2.271501     0.261246    -5.059467
 H     1.857953    -1.112204    -4.022891
Rh     0.096411     0.070202    -1.609644
 O     3.034731     0.825166    -0.028383
 C     1.737122     2.997472    -0.747382
 C     0.953020     1.380690     1.661653
 O    -1.905699    -0.217903     1.200996
 C    -2.465015    -2.129569    -0.597812
 C     0.006271    -2.063790     1.155090
 P    -1.066055    -1.076089     0.003594
 P     1.416032     1.290054    -0.136964
 C    -1.200952    -0.109258    -2.920346
 O    -2.064917    -0.050834    -3.679480
 C     3.492774    -0.454969    -0.124514
 C     2.988325    -1.385133    -1.038110
 H     2.149756    -1.110639    -1.690805
 C     4.560922    -0.812174     0.704361
 H     4.953309    -0.071636     1.403682
 C     3.551559    -2.655560    -1.124739
 H     3.172415    -3.390634    -1.837174
 C     5.125294    -2.082282     0.621022
 H     5.960913    -2.375242     1.259115
 C     4.612788    -2.992638    -0.295166
 F     5.143943    -4.214026    -0.373015
 H     2.285122     2.768037    -1.678687
 C     2.654096     3.868932     0.109940
 H     3.568789     3.314135     0.367256
 H     2.152398     4.124092     1.058558
 C     2.998211     5.158531    -0.631526
 H     3.632953     5.798877     0.002348
 H     3.600418     4.909613    -1.523780
 C     1.744210     5.910866    -1.064644
 H     2.017043     6.818997    -1.626117
 H     1.200028     6.254258    -0.165709
 C     0.821636     5.027165    -1.898144
 H     1.321482     4.769937    -2.849320
 H    -0.096292     5.574191    -2.167160
 C     0.463738     3.739792    -1.162493
 H    -0.140641     3.987296    -0.275062
 H    -0.156628     3.084049    -1.794011
 H     0.476479     0.403518     1.837451
 C    -0.126773     2.427806     1.943881
 H    -0.949854     2.349456     1.219260
 H     0.300280     3.438121     1.831248
 C    -0.658701     2.269760     3.363592
 H    -1.426602     3.034007     3.563876
 H    -1.164914     1.291805     3.444584
 C     0.467359     2.355334     4.387653
 H     0.075765     2.199103     5.405856
 H     0.892056     3.375658     4.372486
 C     1.574199     1.350565     4.086117
 H     1.180322     0.326380     4.219515
 H     2.400810     1.459759     4.806874
 C     2.105057     1.491095     2.661160
 H     2.616470     2.460658     2.546715
 H     2.858963     0.716426     2.461453
 C    -2.905064     0.674402     0.960379
 C    -3.877205     0.812140     1.955939
 H    -3.808761     0.185699     2.847241
 C    -2.968974     1.471623    -0.186776
 H    -2.189515     1.378327    -0.949013
 C    -4.905208     1.738368     1.810545
 H    -5.671684     1.861120     2.577876
 C    -4.001806     2.394232    -0.337046
 H    -4.066897     3.023686    -1.226440
 C    -4.958416     2.519112     0.661570
 F    -5.946221     3.404158     0.518516
 H    -3.112191    -1.346717    -1.043690
 C    -3.288328    -2.839448     0.476025
 H    -3.545462    -2.144075     1.288723
 H    -2.685328    -3.647409     0.925586
 C    -4.553421    -3.436175    -0.135986
 H    -5.129622    -3.971340     0.636194
 H    -5.198875    -2.612532    -0.490360
 C    -4.232852    -4.366007    -1.301644
 H    -5.162509    -4.743203    -1.757419
 H    -3.694548    -5.252106    -0.918160
 C    -3.367257    -3.675903    -2.351241
 H    -3.940607    -2.861577    -2.829137
 H    -3.101428    -4.381542    -3.154641
 C    -2.101515    -3.091827    -1.731456
 H    -1.482879    -3.913453    -1.336390
 H    -1.492267    -2.583648    -2.493846
 H     0.927231    -1.453412     1.194598
 C     0.426959    -3.405921     0.551614
 H     0.781140    -3.271379    -0.482461
 H    -0.444907    -4.080098     0.508530
 C     1.514407    -4.048546     1.406460
 H     1.813914    -5.015941     0.972359
 H     2.411863    -3.406971     1.380512
 C     1.057111    -4.222675     2.849621
 H     1.867315    -4.654632     3.458728
 H     0.222764    -4.946835     2.883743
 C     0.593137    -2.897817     3.444223
 H     1.456972    -2.211812     3.518665
 H     0.223060    -3.042475     4.472228
 C    -0.487903    -2.239129     2.592067
 H    -1.397823    -2.861298     2.599669
 H    -0.776926    -1.267961     3.017833
