  66
scf done:    -1617.669655
 C     1.355399    -2.682208     0.536247
 H     1.821125    -3.258070    -0.281921
 H     2.193231    -2.298579     1.139410
 C     0.509983    -3.606259     1.404776
 H    -0.271714    -4.120744     0.822827
 H     1.116875    -4.390724     1.896861
 H    -0.007048    -3.057222     2.210466
Rh     0.122705    -1.108011    -0.171192
 C     1.570893     1.103045     2.264868
 C     3.458457    -0.097710     0.464463
 C     1.735684     1.994313    -0.486258
 C    -1.576963     1.292122    -2.186042
 C    -3.217991    -0.484575    -0.608896
 C    -1.862803     1.700306     0.730665
 P    -1.596401     0.396514    -0.566865
 P     1.699966     0.453513     0.536308
 C    -0.580777    -2.348372    -1.341219
 O    -0.918765    -3.059383    -2.185004
 H     0.752104     1.841331     2.260204
 C     1.278677    -0.003667     3.268134
 H     2.085394    -0.751950     3.296754
 H     0.354688    -0.540002     3.000119
 H     2.491806     1.649096     2.528953
 H     1.163865     0.400164     4.285706
 H     4.110098     0.727118     0.798652
 H     3.569413    -0.903742     1.206902
 C     3.860897    -0.603874    -0.914252
 H     3.832543     0.231396    -1.635978
 H     3.099016    -1.323899    -1.257037
 C     5.238974    -1.245431    -0.930165
 H     6.018952    -0.539370    -0.601465
 H     5.274848    -2.116528    -0.256732
 H     5.508190    -1.594033    -1.938775
 H     1.762332     1.655164    -1.535576
 H     0.747205     2.463645    -0.353837
 C     2.835811     3.014048    -0.224040
 H     3.820337     2.556365    -0.414815
 H     2.835637     3.301281     0.841120
 C     2.685279     4.259463    -1.085387
 H     2.710805     4.006722    -2.157447
 H     1.726887     4.767112    -0.890142
 H     3.491297     4.984046    -0.894105
 H    -1.520069     0.476807    -2.927228
 C    -2.692007     2.265807    -2.533464
 H    -2.679188     3.151664    -1.881303
 H    -3.687539     1.803617    -2.454054
 H    -0.595737     1.790277    -2.235173
 H    -2.581282     2.624929    -3.568743
 H    -4.048788     0.227141    -0.747617
 H    -3.185165    -1.118564    -1.511731
 C    -3.445954    -1.353865     0.622519
 H    -3.487298    -0.717939     1.524283
 H    -2.565195    -2.005381     0.757866
 C    -4.710780    -2.192097     0.529665
 H    -5.607006    -1.561240     0.412757
 H    -4.669930    -2.872759    -0.335568
 H    -4.851216    -2.807938     1.430917
 H    -1.514314     1.242824     1.672094
 H    -1.140018     2.505310     0.510823
 C    -3.253225     2.290179     0.940537
 H    -3.953190     1.488019     1.224776
 H    -3.640950     2.706099    -0.001738
 C    -3.260707     3.367397     2.015244
 H    -2.904104     2.970657     2.979405
 H    -2.603459     4.209068     1.742970
 H    -4.271608     3.772286     2.174761
