  96
scf done:    -3901.527786
 C    -2.337045     0.964540    -2.927677
 H    -2.347537     0.631889    -3.972418
 H    -3.342778     0.845450    -2.502324
 C    -1.737226     2.334254    -2.717850
 H    -1.313995     2.773894    -3.631765
 H    -2.425807     3.050963    -2.245718
 H    -0.864068     2.304807    -1.980023
Rh    -0.748540     0.241490    -1.782558
 O    -3.417959     0.715359     0.387708
 C    -3.499670    -1.605095    -0.831365
 C    -1.767364    -1.179489     1.326706
 O     1.566476    -1.412482    -0.058983
 C     2.716229     0.706698    -1.404575
 C     1.301509     1.103332     0.987352
 P     1.195843     0.151577    -0.564919
 P    -2.278484    -0.385380    -0.235431
 C    -0.100662    -0.836908    -3.157815
 O     0.204560    -1.663916    -3.903423
 C    -3.194008     2.051610     0.431990
 C    -4.225555     2.899205     0.017077
 H    -5.155466     2.453619    -0.340737
 C    -1.990854     2.593674     0.891813
 H    -1.185763     1.938658     1.228114
 C    -4.058202     4.279079     0.055059
 H    -4.857906     4.946895    -0.269268
 C    -1.817879     3.975323     0.922919
 H    -0.879317     4.400116     1.280210
 C    -2.848385     4.811917     0.501806
Cl    -2.628598     6.533306     0.538718
 C    -3.380633    -2.188790    -2.097716
 H    -2.550896    -1.890366    -2.741598
 C    -4.566683    -1.989101    -0.013163
 H    -4.674007    -1.546347     0.979985
 C    -4.299224    -3.132270    -2.533674
 H    -4.213514    -3.596416    -3.517817
 C    -5.501935    -2.925736    -0.442091
 H    -6.324716    -3.199889     0.218588
 C    -5.369340    -3.507298    -1.711250
 O    -6.215158    -4.426281    -2.214129
 C    -7.304290    -4.842105    -1.439310
 H    -7.983467    -4.004498    -1.201074
 H    -7.851286    -5.582226    -2.037046
 H    -6.980828    -5.315373    -0.495366
 C    -2.130435    -0.684750     2.585976
 H    -2.782640     0.188295     2.655041
 C    -0.948121    -2.308877     1.257826
 H    -0.650977    -2.704497     0.284007
 C    -1.658598    -1.287090     3.744584
 H    -1.928356    -0.908437     4.732549
 C    -0.464429    -2.918692     2.412402
 H     0.187354    -3.787455     2.320163
 C    -0.808321    -2.398901     3.668241
 O    -0.367454    -2.897259     4.840577
 C     0.504009    -3.994096     4.820367
 H     1.437692    -3.766852     4.275413
 H     0.748355    -4.221302     5.865709
 H     0.036250    -4.883017     4.362259
 C     2.811898    -1.887684     0.220456
 C     3.272207    -1.941983     1.537832
 H     2.636622    -1.574016     2.343256
 C     3.615520    -2.362625    -0.818921
 H     3.238640    -2.315311    -1.842182
 C     4.536711    -2.456298     1.813634
 H     4.907966    -2.500101     2.838847
 C     4.879349    -2.874371    -0.548169
 H     5.516050    -3.240785    -1.354766
 C     5.337111    -2.914685     0.768766
Cl     6.915381    -3.545577     1.110615
 C     3.924611     0.877895    -0.700682
 H     3.956061     0.711260     0.378301
 C     2.712694     0.948753    -2.779309
 H     1.778485     0.835671    -3.334725
 C     5.081481     1.254746    -1.356464
 H     6.023888     1.380626    -0.820684
 C     3.869616     1.337745    -3.452783
 H     3.824248     1.521612    -4.526156
 C     5.066144     1.486022    -2.742449
 O     6.235413     1.848300    -3.293463
 C     6.290108     2.095790    -4.672381
 H     5.629177     2.930236    -4.964646
 H     7.328095     2.367465    -4.901090
 H     6.016333     1.201846    -5.259239
 C     1.608543     2.474656     0.943363
 H     1.898092     2.939043    -0.002924
 C     0.932123     0.545846     2.211853
 H     0.671582    -0.511287     2.269030
 C     1.547534     3.253259     2.086970
 H     1.788641     4.317857     2.063774
 C     0.865949     1.318985     3.370259
 H     0.563042     0.842045     4.302316
 C     1.167611     2.683826     3.313023
 O     1.118753     3.518267     4.365604
 C     0.701922     3.016436     5.605920
 H     1.382335     2.231699     5.980430
 H     0.713511     3.860780     6.306300
 H    -0.321650     2.605669     5.556513
