  92
scf done:    -2880.313885
 C    -2.261006     0.602572    -2.879535
 H    -2.263642     0.140265    -3.873594
 H    -3.266200     0.525737    -2.443632
 C    -1.671731     1.991191    -2.838725
 H    -1.253047     2.321411    -3.799613
 H    -2.363455     2.754355    -2.452037
 H    -0.795290     2.056784    -2.104871
Rh    -0.668214     0.044921    -1.652529
 O    -3.298307     0.779511     0.505849
 C    -3.444229    -1.644006    -0.491193
 C    -1.663290    -1.056680     1.580104
 O     1.685824    -1.412909     0.173886
 C     2.787949     0.603916    -1.350945
 C     1.389701     1.179253     1.021196
 P     1.282014     0.095699    -0.445235
 P    -2.191777    -0.388739    -0.035800
 C    -0.012091    -1.198931    -2.876454
 O     0.305483    -2.111558    -3.507901
 C    -3.078338     2.112610     0.362287
 C    -1.876350     2.711363     0.747670
 H    -1.075821     2.106200     1.175515
 C    -4.108470     2.892859    -0.169921
 H    -5.036726     2.401151    -0.466110
 C    -1.702011     4.084367     0.587125
 H    -0.768075     4.567121     0.877973
 C    -3.941118     4.266233    -0.321006
 H    -4.732196     4.894642    -0.734121
 C    -2.733491     4.845217     0.053713
 F    -2.565479     6.161494    -0.097174
 C    -4.584600    -1.828239     0.303439
 H    -4.739895    -1.197452     1.181534
 C    -3.260851    -2.455958    -1.609364
 H    -2.377933    -2.308150    -2.234651
 C    -5.517152    -2.802117    -0.026013
 H    -6.404512    -2.931015     0.600726
 C    -4.196841    -3.439953    -1.926971
 H    -4.035316    -4.069771    -2.806093
 C    -5.339371    -3.628898    -1.146281
 C    -6.356699    -4.677457    -1.488186
 H    -6.518077    -5.365994    -0.643699
 H    -7.332275    -4.221891    -1.722783
 H    -6.045885    -5.273652    -2.357295
 C    -2.010630    -0.455124     2.790883
 H    -2.647093     0.432072     2.790153
 C    -0.852559    -2.198835     1.593190
 H    -0.561953    -2.669167     0.651007
 C    -1.537051    -0.977788     3.994148
 H    -1.810476    -0.491425     4.934944
 C    -0.383523    -2.710969     2.796132
 H     0.261646    -3.593982     2.787244
 C    -0.712076    -2.106426     4.019612
 C    -0.203591    -2.674402     5.312242
 H     0.872492    -2.899596     5.255849
 H    -0.365498    -1.981940     6.150291
 H    -0.716964    -3.618870     5.556771
 C     2.950895    -1.853245     0.440108
 C     3.467198    -1.786666     1.735283
 H     2.860897    -1.357331     2.532986
 C     3.712148    -2.410411    -0.590239
 H     3.288133    -2.457104    -1.594929
 C     4.750294    -2.262562     1.997622
 H     5.177810    -2.221655     3.001067
 C     4.994036    -2.884373    -0.333268
 H     5.609129    -3.318499    -1.123332
 C     5.499957    -2.800182     0.958963
 F     6.730627    -3.249758     1.207992
 C     2.763795     0.712620    -2.743196
 H     1.826507     0.531214    -3.274974
 C     3.995335     0.856841    -0.678416
 H     4.038058     0.792791     0.411008
 C     3.917085     1.051946    -3.448912
 H     3.875185     1.134246    -4.538236
 C     5.141591     1.185356    -1.387566
 H     6.073715     1.367556    -0.845532
 C     5.125046     1.286550    -2.787133
 C     6.373244     1.641279    -3.538796
 H     7.169705     0.903824    -3.351042
 H     6.196209     1.681305    -4.622290
 H     6.761899     2.621773    -3.220956
 C     1.061744     0.717575     2.298486
 H     0.831748    -0.337165     2.454953
 C     1.662241     2.544282     0.848119
 H     1.921592     2.928106    -0.142131
 C     1.005710     1.601185     3.374424
 H     0.739312     1.216127     4.362304
 C     1.605616     3.417477     1.927797
 H     1.829315     4.477105     1.773202
 C     1.266983     2.964773     3.210953
 C     1.159001     3.923734     4.358918
 H     1.970539     4.666449     4.342251
 H     0.208230     4.480562     4.311872
 H     1.188928     3.402222     5.325799
