  76
scf done:    -2991.616315
 C    -0.408068     1.564646     3.329839
 H    -0.023457     1.268532     4.317551
 H     0.055528     2.535721     3.117841
 C    -1.922187     1.704449     3.388425
 H    -2.239470     2.459790     4.132179
 H    -2.355186     2.018089     2.422256
 H    -2.413618     0.757729     3.665273
Rh    -0.108653     0.098491     1.834876
 O    -0.031957     1.686489    -1.264126
 C     0.229492     3.566495     0.731823
 C     2.318953     1.572607    -0.139141
 O     0.174854    -1.884391    -1.091209
 C    -0.180445    -3.383799     1.194555
 C    -2.271551    -1.690852    -0.174444
 P    -0.528031    -1.705297     0.444088
 P     0.539799     1.759137     0.338537
 C     0.455630    -0.955697     3.231789
 O     0.980024    -1.552072     4.067635
 C    -1.318912     1.429946    -1.571365
 C    -2.384236     1.745368    -0.720490
 H    -2.197099     2.236599     0.235172
 C    -1.581611     0.816717    -2.802052
 H    -0.742507     0.591916    -3.461216
 C    -3.688487     1.406872    -1.072410
 H    -4.516975     1.633342    -0.399788
 C    -2.880679     0.473788    -3.153993
 H    -3.085774    -0.029446    -4.100117
 C    -3.930273     0.751172    -2.275831
Cl    -5.541270     0.246380    -2.672843
 H    -0.686033     3.531989     1.348615
 C     1.333495     4.173545     1.596602
 H     0.992435     5.139062     2.002231
 H     1.610087     3.536506     2.447793
 H     2.242649     4.366473     1.009893
 C    -0.053159     4.436275    -0.488889
 H    -0.913960     4.080714    -1.070864
 H    -0.276213     5.463399    -0.157426
 H     0.810666     4.484622    -1.165924
 H     2.253407     0.588938    -0.624826
 C     2.841665     2.549991    -1.183624
 H     3.811590     2.184600    -1.558061
 H     2.158471     2.624329    -2.040850
 H     3.005833     3.558132    -0.775490
 C     3.244406     1.411316     1.060246
 H     2.833492     0.684916     1.777937
 H     4.222625     1.043239     0.713291
 H     3.416115     2.358564     1.590459
 C     1.483983    -1.655134    -1.333679
 C     1.829907    -1.174560    -2.601325
 H     1.037649    -1.027177    -3.336088
 C     2.486910    -1.867349    -0.381163
 H     2.235373    -2.237415     0.612828
 C     3.149798    -0.860905    -2.899090
 H     3.418990    -0.459149    -3.877124
 C     3.812169    -1.560333    -0.679170
 H     4.592247    -1.704192     0.069686
 C     4.136198    -1.036957    -1.927441
Cl     5.770810    -0.566586    -2.266073
 H     0.763425    -3.209431     1.739882
 C    -1.231943    -3.744172     2.240142
 H    -0.874110    -4.586174     2.852619
 H    -1.445831    -2.908050     2.922666
 H    -2.176761    -4.054574     1.770268
 C     0.056933    -4.512086     0.198713
 H     0.847836    -4.268502    -0.523921
 H     0.366550    -5.419113     0.742422
 H    -0.849948    -4.759419    -0.368900
 H    -2.202985    -0.830100    -0.855579
 C    -2.716103    -2.884074    -1.007637
 H    -3.664313    -2.635435    -1.511467
 H    -1.977937    -3.130756    -1.783432
 H    -2.894733    -3.779273    -0.393218
 C    -3.265213    -1.319264     0.920190
 H    -2.923664    -0.441555     1.490849
 H    -4.235442    -1.071318     0.462078
 H    -3.431682    -2.140553     1.631419
