 102
scf done:    -3061.161814
 C    -1.233267    -0.192082     3.539191
 H    -0.832475     0.180761     4.494137
 H    -2.188425     0.329057     3.381903
 C    -1.439618    -1.696894     3.616271
 H    -2.138096    -1.977512     4.427472
 H    -1.865517    -2.109006     2.685259
 H    -0.495493    -2.233472     3.809150
Rh     0.109403     0.053191     1.928318
 O    -1.955933    -1.105790    -0.665078
 C    -3.403949     0.030232     1.166906
 C    -1.774979     1.667502    -0.449868
 O     1.927091     0.758995    -0.994976
 C     3.421705    -0.540107     0.842907
 C     1.355152    -1.794178    -0.640289
 P     1.691507    -0.288103     0.312197
 P    -1.717919     0.109591     0.474967
 C     1.217632     0.881860     3.144565
 O     1.850298     1.530069     3.855540
 C    -1.662239    -1.242730    -1.982168
 C    -0.820789    -0.382747    -2.687769
 H    -0.325271     0.437156    -2.171480
 C    -2.261576    -2.346024    -2.621664
 C    -3.144339    -3.269892    -1.843997
 H    -3.478120    -4.112316    -2.464645
 H    -2.611797    -3.672026    -0.968262
 H    -4.033377    -2.742699    -1.462559
 C    -0.593541    -0.595039    -4.045894
 H     0.063810     0.087477    -4.588932
 C    -2.005628    -2.538575    -3.979655
 H    -2.471760    -3.391890    -4.480585
 C    -1.185189    -1.670495    -4.700179
 H    -1.010197    -1.835981    -5.765717
 C    -3.989413     1.183989     1.710269
 H    -3.462301     2.139905     1.652131
 C    -4.097172    -1.176576     1.258136
 H    -3.658516    -2.082441     0.837122
 C    -5.233572     1.129477     2.316445
 H    -5.700681     2.021751     2.737014
 C    -5.351098    -1.244408     1.864898
 H    -5.867275    -2.203421     1.912391
 C    -5.926514    -0.087288     2.401100
 O    -7.128399    -0.046081     3.006526
 C    -7.862911    -1.231118     3.132219
 H    -7.320476    -1.989608     3.723843
 H    -8.792137    -0.971670     3.655074
 H    -8.116617    -1.663926     2.148283
 C    -2.736436     1.910856    -1.445862
 H    -3.497641     1.158518    -1.667116
 C    -0.823752     2.647974    -0.172453
 H    -0.085081     2.455305     0.611515
 C    -2.714456     3.094640    -2.160619
 H    -3.441107     3.298052    -2.949200
 C    -0.798246     3.849948    -0.875735
 H    -0.027000     4.582957    -0.640159
 C    -1.738194     4.070695    -1.887833
 O    -1.784186     5.179853    -2.645297
 C    -0.831275     6.184801    -2.423169
 H     0.197209     5.809858    -2.562515
 H    -1.031102     6.974440    -3.158261
 H    -0.915762     6.610037    -1.407923
 C     2.298775     2.064922    -0.887528
 C     2.700929     2.648609     0.315823
 H     2.738047     2.055109     1.229275
 C     2.262325     2.820106    -2.074738
 C     1.770988     2.206739    -3.347781
 H     2.049351     2.820625    -4.215383
 H     2.166362     1.190672    -3.488449
 H     0.671249     2.124258    -3.333093
 C     3.057928     3.995790     0.352591
 H     3.363261     4.439433     1.302845
 C     2.651013     4.159214    -2.011260
 H     2.641406     4.747069    -2.933888
 C     3.040326     4.757037    -0.812265
 H     3.336410     5.808150    -0.792234
 C     4.504775    -0.304228    -0.018230
 H     4.327671     0.094696    -1.019377
 C     3.677474    -1.045112     2.117290
 H     2.842750    -1.231064     2.799095
 C     5.801705    -0.558164     0.393687
 H     6.654375    -0.366844    -0.260417
 C     4.978040    -1.316715     2.540119
 H     5.140306    -1.710502     3.543419
 C     6.051080    -1.069202     1.677162
 O     7.342264    -1.284057     1.989070
 C     7.656990    -1.787149     3.257702
 H     7.206448    -2.780723     3.428553
 H     8.749496    -1.881794     3.296302
 H     7.328906    -1.105570     4.062110
 C     0.587552    -2.789706    -0.019478
 H     0.234307    -2.637224     1.006145
 C     1.793033    -1.997379    -1.948698
 H     2.387838    -1.229092    -2.445805
 C     0.242161    -3.943512    -0.702158
 H    -0.365178    -4.721685    -0.236774
 C     1.435290    -3.143205    -2.652232
 H     1.753495    -3.252927    -3.688312
 C     0.634481    -4.113043    -2.037536
 O     0.188089    -5.224714    -2.650489
 C     0.505237    -5.422824    -4.000926
 H     1.593736    -5.527195    -4.155300
 H     0.014353    -6.356121    -4.304835
 H     0.131284    -4.596690    -4.629744
