 110
scf done:    -2617.849314
 C     1.371966    -1.104373    -3.182468
 H     0.838666    -1.079549    -4.145937
 H     2.329765    -0.596230    -3.366952
 C     1.601958    -2.552897    -2.776957
 H     2.169056    -3.107453    -3.548505
 H     2.163453    -2.645430    -1.833173
 H     0.654645    -3.099280    -2.638982
Rh     0.166070    -0.197795    -1.699727
 O     2.498842    -1.652768     0.490499
 C     3.580042     0.070244    -1.120709
 C     1.928432     0.957940     1.219002
 O    -1.675338     0.745809     1.242333
 C    -3.164961     0.791541    -1.079854
 C    -2.085927    -1.665252     0.289579
 P    -1.656231     0.027093    -0.297883
 P     1.978345    -0.206671    -0.235311
 C    -0.567594     0.800259    -3.055534
 O    -0.905725     1.572404    -3.844267
 C     1.740622    -2.519569     1.204019
 C     1.981400    -3.886092     1.022602
 H     2.723463    -4.189917     0.282086
 C     0.793270    -2.119690     2.150994
 H     0.576025    -1.062538     2.305304
 C     1.297524    -4.826229     1.783920
 H     1.501859    -5.888762     1.624585
 C     0.122221    -3.076477     2.912119
 H    -0.607075    -2.739120     3.654019
 C     0.351766    -4.443821     2.745400
 C    -0.421655    -5.466006     3.525911
 H     0.189898    -6.351715     3.752611
 H    -1.300899    -5.814402     2.956958
 H    -0.790664    -5.053842     4.476118
 H     3.583344    -0.827067    -1.766819
 C     4.864559     0.017853    -0.294532
 H     4.847917    -0.846441     0.385304
 H     4.943151     0.924149     0.329857
 C     6.076535    -0.048050    -1.221413
 H     7.005081    -0.065091    -0.627561
 H     6.047791    -1.000726    -1.780553
 C     6.096965     1.115985    -2.207072
 H     6.951973     1.020795    -2.896070
 H     6.253383     2.056837    -1.648067
 C     4.790312     1.216120    -2.988367
 H     4.685881     0.334834    -3.646991
 H     4.805056     2.097170    -3.650144
 C     3.586165     1.284575    -2.054052
 H     3.648209     2.211614    -1.463057
 H     2.644023     1.337675    -2.620336
 H     0.877098     0.890089     1.552611
 C     2.165962     2.413492     0.805464
 H     1.522901     2.683570    -0.046680
 H     3.209749     2.524370     0.468696
 C     1.927212     3.358874     1.978338
 H     2.124829     4.397049     1.665295
 H     0.864466     3.318574     2.262638
 C     2.781255     2.988602     3.184141
 H     2.553440     3.654807     4.032140
 H     3.849101     3.144008     2.943817
 C     2.568000     1.531713     3.577421
 H     1.526904     1.396224     3.923294
 H     3.216955     1.259320     4.425646
 C     2.830756     0.594188     2.402714
 H     3.886262     0.680368     2.103461
 H     2.686392    -0.451010     2.708584
 C    -1.554142     2.082730     1.444127
 C    -1.791942     2.551666     2.740237
 H    -2.046962     1.828636     3.517434
 C    -1.227995     2.994501     0.436397
 H    -1.004768     2.639777    -0.572104
 C    -1.720026     3.912899     3.013162
 H    -1.914339     4.260940     4.031613
 C    -1.165919     4.355717     0.728537
 H    -0.911394     5.053704    -0.073836
 C    -1.408723     4.845672     2.014647
 C    -1.294590     6.309214     2.327334
 H    -2.014374     6.615176     3.100903
 H    -1.470845     6.927107     1.435119
 H    -0.287269     6.556462     2.703304
 H    -2.754809     1.696853    -1.563380
 C    -4.291507     1.251743    -0.152647
 H    -3.901841     1.891032     0.651975
 H    -4.757679     0.381381     0.334634
 C    -5.347399     2.012099    -0.951855
 H    -6.167321     2.325571    -0.285447
 H    -4.896034     2.940690    -1.345629
 C    -5.890465     1.183204    -2.110731
 H    -6.615343     1.770792    -2.697139
 H    -6.447844     0.318839    -1.705509
 C    -4.768372     0.673629    -3.008684
 H    -4.281611     1.525235    -3.516534
 H    -5.173744     0.027865    -3.804338
 C    -3.717053    -0.087164    -2.207323
 H    -4.177662    -0.991358    -1.774249
 H    -2.904914    -0.431018    -2.867123
 H    -1.289520    -1.820333     1.036093
 C    -1.856867    -2.712971    -0.802887
 H    -0.863317    -2.557730    -1.258968
 H    -2.593792    -2.586786    -1.613100
 C    -1.960880    -4.121997    -0.230318
 H    -1.840084    -4.863103    -1.036830
 H    -1.124737    -4.282293     0.470591
 C    -3.284476    -4.335280     0.497006
 H    -3.321286    -5.345299     0.937647
 H    -4.114029    -4.286283    -0.232253
 C    -3.506306    -3.279222     1.575158
 H    -2.739293    -3.397594     2.360368
 H    -4.482375    -3.427382     2.065432
 C    -3.420215    -1.865857     1.002676
 H    -4.252116    -1.718677     0.293226
 H    -3.539320    -1.115295     1.798978
