  96
scf done:    -3180.949428
 C    -1.974707    -1.986466    -2.731497
 H    -1.716493    -2.987683    -3.098378
 H    -3.027870    -1.967709    -2.429608
 C    -1.578717    -0.875327    -3.671666
 H    -1.217481    -1.220891    -4.652862
 H    -2.371389    -0.127002    -3.819835
 H    -0.693244    -0.282126    -3.259934
Rh    -0.575522    -1.222443    -1.395292
 O    -2.841404     1.401470    -0.645476
 C    -3.922249    -0.923697    -0.394724
 C    -2.133270    -0.094838     1.579928
 O     1.734287    -0.962928     0.879129
 C     2.857136    -0.917055    -1.638572
 C     1.797549     1.465256    -0.539286
 P     1.425839    -0.329867    -0.634901
 P    -2.269105    -0.138892    -0.251985
 C    -0.009195    -2.922526    -0.962670
 O     0.218203    -3.970084    -0.529665
 C    -2.082909     2.512286    -0.810624
 C    -1.224937     2.659537    -1.904087
 H    -1.102238     1.829089    -2.599138
 C    -2.256583     3.569182     0.086550
 H    -2.941764     3.423184     0.923075
 C    -0.552993     3.860735    -2.105199
 H     0.126192     3.997351    -2.947343
 C    -1.586485     4.773978    -0.112036
 H    -1.709743     5.616970     0.570744
 C    -0.740582     4.901302    -1.205910
 F    -0.075870     6.047383    -1.386948
 C    -5.021678    -0.268892    -0.945322
 H    -4.900621     0.767155    -1.263909
 C    -4.064941    -2.260450     0.031229
 O    -2.964825    -2.830412     0.548718
 C    -2.973342    -4.182212     0.910184
 H    -3.664771    -4.374587     1.749231
 H    -1.949298    -4.425000     1.218448
 H    -3.249257    -4.826844     0.058063
 C    -6.250988    -0.916744    -1.079271
 H    -7.102186    -0.388981    -1.514790
 C    -5.294943    -2.911702    -0.099296
 H    -5.410254    -3.944562     0.230073
 C    -6.381147    -2.234816    -0.654686
 H    -7.338204    -2.753113    -0.753759
 C    -1.101382    -0.825852     2.166394
 H    -0.371899    -1.304999     1.512643
 C    -3.087507     0.526590     2.414946
 O    -4.082654     1.208344     1.817852
 C    -5.183855     1.627415     2.571516
 H    -5.649552     0.785877     3.112729
 H    -5.909560     2.037220     1.857528
 H    -4.914922     2.414760     3.298193
 C    -0.987728    -0.946331     3.550488
 H    -0.166327    -1.521940     3.981762
 C    -2.974143     0.411366     3.806377
 H    -3.704257     0.889263     4.459989
 C    -1.927909    -0.323217     4.365422
 H    -1.856548    -0.404380     5.453185
 C     2.882183    -1.070616     1.599931
 C     3.202089    -0.104854     2.554743
 H     2.538027     0.750568     2.672674
 C     3.691750    -2.195484     1.434234
 H     3.408062    -2.947855     0.696209
 C     4.349843    -0.249527     3.329021
 H     4.625338     0.489429     4.083962
 C     4.843849    -2.340266     2.202995
 H     5.496600    -3.208209     2.092528
 C     5.161355    -1.362116     3.138011
 F     6.268044    -1.496684     3.874031
 C     2.599663    -1.750942    -2.729945
 H     1.556709    -2.008091    -2.938002
 C     4.203992    -0.580289    -1.356492
 O     4.418445     0.253804    -0.331298
 C     5.723069     0.603368     0.036703
 H     6.313188    -0.283824     0.322029
 H     5.628089     1.261198     0.908824
 H     6.241116     1.145774    -0.772917
 C     3.624182    -2.261042    -3.525524
 H     3.390222    -2.911476    -4.370269
 C     5.235845    -1.102466    -2.144052
 H     6.273961    -0.856128    -1.921590
 C     4.941494    -1.938489    -3.219874
 H     5.760808    -2.336966    -3.823634
 C     2.500229     2.085572    -1.576272
 H     2.840144     1.482408    -2.421417
 C     1.336406     2.262640     0.527071
 O     0.606875     1.644370     1.472153
 C     0.117077     2.382321     2.561403
 H     0.941324     2.800281     3.166192
 H    -0.460694     1.680170     3.173057
 H    -0.539348     3.201172     2.226645
 C     2.797746     3.445351    -1.546329
 H     3.352661     3.902395    -2.368158
 C     1.660409     3.623395     0.575122
 H     1.321467     4.237969     1.408267
 C     2.393074     4.206714    -0.454563
 H     2.620022     5.273934    -0.410352
