 110
scf done:    -2917.646631
 C    -1.518541     2.287176     3.106019
 H    -1.079813     3.124836     3.670729
 H    -2.169164     2.766930     2.357963
 C    -2.328252     1.420370     4.060454
 H    -1.694375     0.984425     4.848666
 H    -3.130382     1.989498     4.567863
 H    -2.811059     0.568658     3.552710
Rh    -0.035438     1.101152     2.133363
 O    -1.929312    -1.229871     0.763920
 C    -3.288869     1.232795     0.572688
 C    -1.096169     0.510322    -1.185379
 O     2.146165     0.059595    -0.282702
 C     3.168263    -0.268608     2.257540
 C     1.260469    -2.079433     1.048603
 P     1.590354    -0.256541     1.269356
 P    -1.638454     0.404164     0.568896
 C     1.107329     1.995381     3.271958
 O     1.810154     2.610101     3.943304
 C    -2.966025    -2.030750     0.356383
 C    -3.226380    -2.282354    -0.990140
 H    -2.631578    -1.795472    -1.761621
 C    -3.701668    -2.666698     1.369200
 C    -3.391848    -2.392503     2.807771
 H    -2.317765    -2.508616     3.015645
 H    -3.645597    -1.355760     3.082776
 H    -3.955785    -3.064422     3.468474
 C    -4.258926    -3.145079    -1.346864
 H    -4.470241    -3.321798    -2.403468
 C    -4.722085    -3.539342     0.982658
 H    -5.303164    -4.042903     1.760240
 C    -5.009730    -3.777133    -0.359880
 H    -5.817411    -4.459527    -0.633173
 H    -3.633099     1.209404     1.616386
 H    -3.022853     2.281726     0.357837
 C    -4.358820     0.749511    -0.359940
 C    -4.330923     1.062843    -1.723345
 H    -3.540196     1.704283    -2.119403
 C    -5.417867    -0.022326     0.130304
 H    -5.454768    -0.255085     1.198299
 C    -5.318128     0.567833    -2.572712
 H    -5.286839     0.811552    -3.637713
 C    -6.418335    -0.520877    -0.705864
 C    -7.554411    -1.328765    -0.150754
 H    -7.838171    -2.141878    -0.834957
 H    -7.290833    -1.777005     0.817157
 H    -8.447962    -0.700272     0.000686
 C    -6.346344    -0.225873    -2.072923
 H    -7.113499    -0.613860    -2.748850
 H    -0.170149    -0.088110    -1.226617
 H    -1.839024     0.004889    -1.817817
 C    -0.859306     1.903390    -1.707529
 C    -1.052176     2.162250    -3.069089
 H    -1.382523     1.356960    -3.731355
 C    -0.433588     2.948392    -0.880956
 H    -0.250876     2.749945     0.184730
 C    -0.817613     3.435796    -3.582705
 H    -0.963481     3.626069    -4.648933
 C    -0.209516     4.235070    -1.377067
 C     0.206584     5.343080    -0.455116
 H     0.548194     4.947706     0.511433
 H     1.020994     5.941222    -0.890127
 H    -0.635022     6.027945    -0.258841
 C    -0.402652     4.465698    -2.743817
 H    -0.223942     5.463737    -3.153631
 C     2.482664     1.275236    -0.795813
 C     2.795043     2.381345    -0.005051
 H     2.736077     2.314256     1.080501
 C     2.536054     1.351550    -2.199991
 C     2.218372     0.147994    -3.030361
 H     2.430215     0.335926    -4.091549
 H     2.790195    -0.730377    -2.697423
 H     1.157659    -0.135026    -2.941746
 C     3.156640     3.586455    -0.605332
 H     3.396493     4.446638     0.023550
 C     2.890026     2.574472    -2.770762
 H     2.920450     2.650031    -3.860944
 C     3.199034     3.688906    -1.990836
 H     3.472009     4.632319    -2.468445
 H     3.453668     0.783877     2.401443
 H     2.859331    -0.641790     3.247658
 C     4.299968    -1.065095     1.692052
 C     4.625757    -2.325400     2.206163
 H     4.081896    -2.716471     3.070490
 C     5.025512    -0.578284     0.597249
 H     4.783308     0.407393     0.191844
 C     5.639350    -3.082496     1.621268
 H     5.884117    -4.067411     2.025917
 C     6.036888    -1.327927    -0.007236
 C     6.789971    -0.781937    -1.185336
 H     6.187494    -0.046825    -1.738065
 H     7.714669    -0.275072    -0.862630
 H     7.082302    -1.582362    -1.880815
 C     6.333782    -2.592559     0.518507
 H     7.119104    -3.197699     0.057025
 H     1.920224    -2.598260     1.760889
 H     0.223327    -2.220797     1.382162
 C     1.443251    -2.640989    -0.333763
 C     0.330172    -2.900457    -1.138407
 H    -0.669183    -2.721589    -0.743364
 C     2.715923    -2.917078    -0.843245
 H     3.593197    -2.725941    -0.224338
 C     0.493417    -3.407374    -2.425868
 H    -0.386841    -3.617194    -3.039231
 C     2.898203    -3.420770    -2.133618
 C     4.283035    -3.652446    -2.666014
 H     4.975268    -3.946350    -1.863982
 H     4.295517    -4.430387    -3.443105
 H     4.686407    -2.729644    -3.117408
 C     1.767963    -3.661303    -2.924596
 H     1.890666    -4.059166    -3.935869
