  86
scf done:    -4441.249213
 C     2.343085    -1.875779    -2.155988
 H     2.843022    -1.388990    -3.009083
 H     3.135140    -2.027559    -1.403337
 C     1.762691    -3.220400    -2.568310
 H     2.552839    -3.925033    -2.888646
 H     1.223826    -3.710756    -1.741507
 H     1.056913    -3.123183    -3.409369
Rh     0.733501    -0.708825    -1.406261
 O     2.526255    -1.801416     1.241685
 C     3.707296     0.293277     0.052021
 C     1.527653     0.616666     1.810079
 O    -1.280634     0.482468     1.004355
 C    -1.725344     1.770318    -1.391895
 C    -2.661680    -0.906337    -0.881496
 P    -1.219679     0.184172    -0.641954
 P     2.070956    -0.416454     0.411102
 C     0.327349    -0.326056    -3.188371
 O     0.176920     0.039680    -4.266720
 C     1.866138    -2.984245     1.041284
 C     0.473456    -3.038859     0.996027
 H    -0.107197    -2.122831     1.120738
 C     2.650318    -4.138136     0.896041
 C     4.143331    -4.034505     0.924456
 H     4.610784    -5.018848     0.788073
 H     4.504722    -3.364028     0.128446
 H     4.496139    -3.608420     1.876404
 C    -0.165692    -4.262177     0.797436
 H    -1.257040    -4.299903     0.761790
 C     1.983205    -5.351023     0.706837
 H     2.577057    -6.261047     0.586227
 C     0.590652    -5.421706     0.652200
 H     0.099503    -6.384650     0.496806
 C     4.731946     0.244671     1.005052
 H     4.558547    -0.245241     1.966106
 C     3.932578     0.917312    -1.176855
 H     3.127912     0.929045    -1.918474
 C     5.971144     0.810413     0.731345
 H     6.780605     0.773961     1.462107
 C     5.166025     1.501150    -1.455333
 H     5.351989     1.992446    -2.411556
 C     6.177397     1.440216    -0.498550
Cl     7.716718     2.153368    -0.837713
 C     1.464863     2.003971     1.643719
 H     1.904181     2.466262     0.754635
 C     1.008063     0.044094     2.973131
 H     1.080111    -1.034946     3.125395
 C     0.837175     2.804157     2.591348
 H     0.770737     3.885643     2.461764
 C     0.375397     0.834173     3.928453
 H    -0.056958     0.390957     4.826791
 C     0.270108     2.207395     3.717774
Cl    -0.585523     3.184840     4.858640
 C    -2.358025     0.872505     1.755963
 C    -2.761995     2.207437     1.765193
 H    -2.229850     2.928229     1.145929
 C    -2.990655    -0.084733     2.567628
 C    -2.524196    -1.506924     2.589461
 H    -2.588991    -1.969983     1.593072
 H    -1.472273    -1.571677     2.905493
 H    -3.128523    -2.106761     3.282781
 C    -3.824736     2.607534     2.570904
 H    -4.132143     3.655555     2.577786
 C    -4.054448     0.346263     3.366192
 H    -4.557986    -0.385641     4.003597
 C    -4.478509     1.673514     3.370308
 H    -5.311340     1.978639     4.007521
 C    -0.955014     2.902988    -1.091496
 H    -0.146095     2.824216    -0.361661
 C    -2.731737     1.875347    -2.356245
 H    -3.324873     1.000588    -2.630293
 C    -1.208688     4.122827    -1.703754
 H    -0.616747     5.007291    -1.463228
 C    -2.987908     3.090901    -2.988130
 H    -3.773143     3.174035    -3.741014
 C    -2.231190     4.210126    -2.651592
Cl    -2.550056     5.724294    -3.422861
 C    -3.970044    -0.532709    -0.538032
 H    -4.185845     0.483489    -0.201538
 C    -2.417789    -2.215679    -1.315620
 H    -1.396546    -2.506330    -1.583379
 C    -5.008643    -1.454772    -0.609237
 H    -6.026015    -1.173415    -0.333555
 C    -3.450817    -3.144180    -1.398194
 H    -3.262999    -4.164099    -1.737128
 C    -4.740549    -2.757073    -1.034737
Cl    -6.029951    -3.905637    -1.116998
