  60
scf done:    -1539.112063
 C    -3.287451    -1.739127     0.431543
 H    -3.615254    -2.757538     0.168052
 H    -3.442116    -1.669915     1.520150
 C    -4.166586    -0.732656    -0.302013
 H    -5.236691    -0.833544    -0.035609
 H    -3.883424     0.313768    -0.093740
 H    -4.095638    -0.855516    -1.394560
Rh    -1.253837    -1.379456    -0.070431
 C    -0.596892     1.861366     1.300873
 C    -2.664888     0.511105     2.702913
 C    -0.005692    -0.337515     3.056972
 C     2.289143    -0.577072     0.187235
 C     1.517436    -2.175622    -2.058296
 C     0.864365     0.581755    -2.033856
 P     0.843232    -0.891778    -0.929223
 P    -1.158692     0.151539     1.714989
 C    -1.464649    -2.858257    -1.143650
 O    -1.604197    -3.819973    -1.761526
 H    -0.558820     2.473510     2.219130
 H     0.440408     1.777213     0.934695
 C    -1.472106     2.514065     0.238764
 H    -1.581090     1.818590    -0.612882
 H    -2.492803     2.656513     0.634033
 C    -0.934195     3.850524    -0.251853
 H     0.091023     3.710478    -0.643031
 H    -0.831606     4.543710     0.602981
 C    -1.797667     4.493725    -1.327781
 H    -1.896667     3.792722    -2.175273
 H    -2.820732     4.630758    -0.935328
 C    -1.255129     5.824571    -1.822404
 H    -1.899972     6.263007    -2.598838
 H    -0.247354     5.709970    -2.253427
 H    -1.179224     6.555749    -1.001425
 H    -3.490789     0.820303     2.048623
 H    -2.979991    -0.397280     3.234487
 H    -2.458954     1.305368     3.436561
 H     0.006374     0.407245     3.868087
 H    -0.333481    -1.307353     3.457736
 H     1.009638    -0.462411     2.660202
 H     2.003737     0.283747     0.814935
 H     2.326721    -1.443849     0.869517
 C     3.656782    -0.328690    -0.432348
 H     3.969399    -1.207606    -1.020815
 H     3.602484     0.511159    -1.146524
 C     4.727541    -0.024748     0.608200
 H     4.781045    -0.859657     1.330516
 H     4.423244     0.859545     1.197870
 C     6.107406     0.216954     0.012230
 H     6.406741    -0.668642    -0.575921
 H     6.047516     1.048699    -0.712117
 C     7.170574     0.521843     1.055010
 H     8.155372     0.691388     0.594163
 H     7.277330    -0.308681     1.771272
 H     6.915044     1.423628     1.634509
 H     1.681929    -3.104324    -1.492361
 H     0.770309    -2.386408    -2.836386
 H     2.457578    -1.866448    -2.538119
 H     0.054554     0.469118    -2.768938
 H     0.663984     1.490843    -1.449691
 H     1.820347     0.697725    -2.566634
