  96
scf done:    -3901.661216
 C    -1.423753    -4.256392    -0.762810
 H    -1.010646    -5.253586    -0.551188
 H    -2.301517    -4.140935    -0.108896
 C    -1.800460    -4.151992    -2.234505
 H    -2.518974    -4.940334    -2.529075
 H    -2.260624    -3.181955    -2.488379
 H    -0.923649    -4.264420    -2.892939
Rh    -0.020412    -2.711770    -0.393990
 O    -2.433438    -0.624185    -1.469711
 O    -3.076680    -1.908705     0.639122
 O    -1.385164     0.001049     0.784682
 O     1.979364    -0.596611     1.253601
 O     2.991158    -1.590691    -0.868438
 O     1.280098     0.323455    -1.026705
 P     1.540839    -1.110067    -0.251891
 P    -1.757150    -1.313970    -0.130527
 C     1.166912    -4.068087     0.127284
 O     1.856111    -4.869941     0.568021
 C    -2.750678     0.700348    -1.646615
 C    -4.083256     1.107354    -1.622002
 H    -4.871963     0.373168    -1.454444
 C    -1.728092     1.621297    -1.869793
 H    -0.695390     1.271917    -1.892092
 C    -4.391321     2.453980    -1.795690
 H    -5.428619     2.791053    -1.771205
 C    -2.033254     2.968681    -2.033219
 H    -1.238824     3.700592    -2.186643
 C    -3.365733     3.379567    -1.987953
Cl    -3.751764     5.059482    -2.174206
 C    -4.399465    -1.651205     0.352735
 C    -4.993775    -2.258729    -0.751592
 H    -4.398371    -2.916870    -1.386424
 C    -5.140080    -0.812003     1.180455
 H    -4.665411    -0.346316     2.044307
 C    -6.330486    -1.999049    -1.038698
 H    -6.787138    -2.469294    -1.913788
 C    -6.477786    -0.567083     0.879569
 H    -7.051248     0.100915     1.527927
 C    -7.097572    -1.146645    -0.233597
 C    -8.545815    -0.893571    -0.536793
 H    -8.736537    -0.887775    -1.619936
 H    -8.882063     0.068685    -0.124781
 H    -9.183798    -1.678972    -0.098063
 C    -2.114426     0.564851     1.806203
 C    -2.181657    -0.076994     3.041193
 H    -1.680306    -1.037291     3.172633
 C    -2.734622     1.795432     1.611313
 H    -2.668300     2.287338     0.640471
 C    -2.904569     0.509463     4.074979
 H    -2.966428    -0.003886     5.038358
 C    -3.448844     2.369947     2.660379
 H    -3.943389     3.331518     2.498865
 C    -3.554171     1.740012     3.905535
 C    -4.310004     2.373803     5.037056
 H    -4.855405     1.623215     5.628011
 H    -5.035150     3.114981     4.672254
 H    -3.625090     2.894785     5.726703
 C     3.252447    -0.454733     1.743534
 C     3.781911     0.820268     1.936994
 H     3.186789     1.696143     1.677232
 C     3.996839    -1.588034     2.072849
 H     3.566874    -2.579106     1.918031
 C     5.069612     0.962499     2.445690
 H     5.498118     1.954493     2.595767
 C     5.286436    -1.447862     2.576099
 H     5.882784    -2.325966     2.828055
 C     5.819811    -0.171260     2.755152
Cl     7.430034     0.006906     3.370625
 C     3.844291    -0.893102    -1.688688
 C     5.043476    -0.396503    -1.184284
 H     5.290569    -0.547297    -0.133396
 C     3.517885    -0.715805    -3.032048
 H     2.575759    -1.115498    -3.411375
 C     5.902235     0.300871    -2.029368
 H     6.837155     0.696319    -1.623179
 C     4.386481    -0.012396    -3.861727
 H     4.118211     0.133877    -4.911574
 C     5.591778     0.512741    -3.378079
 C     6.536376     1.245873    -4.285638
 H     7.136281     1.983025    -3.732631
 H     5.998990     1.773212    -5.087139
 H     7.240651     0.548105    -4.768904
 C     1.667891     1.587298    -0.625468
 C     2.719860     2.231424    -1.270417
 H     3.262327     1.723226    -2.067439
 C     0.959864     2.231568     0.387826
 H     0.140733     1.707571     0.876635
 C     3.072556     3.520084    -0.875730
 H     3.907348     4.015462    -1.378881
 C     1.325810     3.519459     0.766807
 H     0.769138     4.012465     1.568471
 C     2.389735     4.188176     0.147300
 C     2.760530     5.587163     0.545482
 H     3.811504     5.808479     0.310601
 H     2.607186     5.754357     1.621661
 H     2.141990     6.326965     0.010192
