 106
scf done:    -2465.519030
 C    -1.359271    -1.963814     2.884002
 H    -2.029377    -1.314398     3.474447
 H    -2.014912    -2.573739     2.238460
 C    -0.593923    -2.902946     3.806299
 H    -0.020881    -2.360156     4.574599
 H    -1.269342    -3.597715     4.339655
 H     0.128396    -3.526099     3.253211
Rh    -0.143948    -0.756200     1.622482
 O    -2.232320    -2.131385    -0.736399
 C    -3.595060    -0.634251     0.945582
 C    -2.025868     0.586138    -1.109821
 O     1.098651     1.761834    -0.508445
 C     3.026376     0.512019     0.916693
 C     1.700676    -0.648714    -1.357631
 P     1.355340     0.242962     0.201132
 P    -1.945820    -0.730747     0.167034
 C     0.829333    -0.305182     3.134548
 O     1.364923     0.102929     4.068325
 C    -1.327253    -2.599686    -1.649575
 C    -1.483183    -2.244097    -2.990953
 H    -2.311324    -1.587766    -3.263987
 C    -0.293627    -3.463747    -1.246377
 C    -0.114082    -3.825897     0.191368
 H     0.625051    -4.629553     0.310232
 H     0.234716    -2.948594     0.781319
 H    -1.061729    -4.138762     0.652646
 C    -0.604853    -2.732574    -3.954950
 H    -0.733791    -2.449471    -5.002149
 C     0.567887    -3.947759    -2.237158
 H     1.373782    -4.624879    -1.940395
 C     0.426691    -3.588905    -3.575678
 H     1.120259    -3.981213    -4.322629
 H    -3.643769    -1.474060     1.654749
 H    -3.574219     0.277660     1.566148
 C    -4.790476    -0.653600     0.004532
 H    -4.778603     0.238284    -0.645344
 H    -4.706942    -1.525101    -0.665350
 C    -6.118046    -0.704462     0.748636
 H    -6.189000     0.159855     1.434035
 H    -6.138777    -1.600214     1.395430
 C    -7.328644    -0.719062    -0.174236
 H    -7.303432     0.178364    -0.817862
 H    -7.247159    -1.580124    -0.860996
 C    -8.653570    -0.778911     0.568441
 H    -9.508462    -0.787870    -0.124544
 H    -8.776368     0.088332     1.237111
 H    -8.721105    -1.685091     1.191692
 H    -1.071005     0.572142    -1.657747
 H    -2.821633     0.337440    -1.829979
 C    -2.246320     1.961899    -0.491745
 H    -3.273710     2.031890    -0.094634
 H    -1.577509     2.090345     0.375684
 C    -2.005371     3.098751    -1.472913
 H    -2.674922     2.983734    -2.345334
 H    -0.977566     3.011922    -1.865100
 C    -2.193467     4.476673    -0.855383
 H    -3.228393     4.569373    -0.480094
 H    -1.539890     4.563787     0.028914
 C    -1.892421     5.611144    -1.820152
 H    -2.030451     6.594251    -1.345157
 H    -2.546347     5.573029    -2.706773
 H    -0.850399     5.559599    -2.174347
 C     1.034039     2.933977     0.182529
 C     0.585442     3.011692     1.502602
 H     0.275329     2.098160     2.017222
 C     1.415235     4.091073    -0.521075
 C     1.907467     3.981945    -1.931278
 H     2.818146     3.364543    -1.987532
 H     1.162582     3.496208    -2.581248
 H     2.136191     4.972662    -2.347061
 C     0.511292     4.249792     2.138581
 H     0.158456     4.300549     3.171182
 C     1.323045     5.317577     0.140230
 H     1.613350     6.224197    -0.397903
 C     0.876911     5.408193     1.458667
 H     0.817980     6.381102     1.951016
 H     3.634464     1.093794     0.205704
 H     2.882257     1.146621     1.806390
 C     3.705467    -0.796291     1.303494
 H     2.974288    -1.455643     1.805794
 H     4.019732    -1.334721     0.391930
 C     4.906368    -0.598367     2.217282
 H     4.572830    -0.087245     3.138165
 H     5.627953     0.086415     1.735562
 C     5.606058    -1.898835     2.585615
 H     4.874995    -2.578098     3.058654
 H     5.933543    -2.408854     1.662008
 C     6.795427    -1.701934     3.511411
 H     7.279243    -2.658301     3.761175
 H     6.489303    -1.226859     4.457200
 H     7.557961    -1.053493     3.050428
 H     1.981075    -1.668973    -1.046613
 H     0.735372    -0.770457    -1.874970
 C     2.737971    -0.046847    -2.292699
 H     2.452239     0.991026    -2.527188
 H     3.716929     0.011282    -1.786096
 C     2.889362    -0.841627    -3.581935
 H     1.907131    -0.911780    -4.081877
 H     3.166720    -1.883693    -3.340832
 C     3.910879    -0.252090    -4.543395
 H     3.628783     0.790354    -4.775426
 H     4.891700    -0.189220    -4.039129
 C     4.048102    -1.045079    -5.833027
 H     4.790708    -0.597727    -6.510934
 H     3.089574    -1.093640    -6.374627
 H     4.363238    -2.081823    -5.632110
