  56
scf done:    -2257.573477
 C    -3.221739    -2.216857    -0.634380
 H    -3.390118    -2.949322    -1.438372
 H    -3.249406    -2.787719     0.306873
 C    -4.338865    -1.182026    -0.665010
 H    -5.338386    -1.651012    -0.598022
 H    -4.274904    -0.460995     0.167544
 H    -4.331704    -0.590280    -1.595391
Rh    -1.292249    -1.318137    -0.767933
 O    -1.971482     0.822587     1.793286
 O    -2.618718    -1.483712     2.357293
 O    -0.167368    -0.935540     2.281794
 O     1.975707    -1.419763    -0.552674
 O     1.311524     0.160814    -2.331195
 O     1.013938     0.889076     0.087696
 P     0.742018    -0.386394    -0.888312
 P    -1.526977    -0.738685     1.419553
 C    -1.182306    -2.218184    -2.403487
 O    -1.110196    -2.821830    -3.373377
 C    -1.767003     1.893256     0.963817
 C    -2.179265     1.875149    -0.369499
 H    -2.663061     0.983636    -0.776941
 C    -1.157553     3.027614     1.496386
 H    -0.845115     3.019144     2.541873
 C    -1.958753     2.988909    -1.175915
 H    -2.270643     2.998847    -2.221817
 C    -0.949080     4.148379     0.696944
 H    -0.477214     5.049982     1.091712
 C    -1.343693     4.111074    -0.635456
 F    -1.130510     5.176244    -1.409554
 C    -3.660052    -0.889401     3.104339
 H    -3.270535    -0.373081     3.995963
 H    -4.230885    -0.167960     2.502241
 H    -4.326501    -1.703220     3.419512
 C    -0.121059    -0.708396     3.676206
 H    -0.446809     0.314783     3.922302
 H    -0.752327    -1.433532     4.212913
 H     0.922441    -0.837268     3.992040
 C     3.214560    -1.015712    -0.131016
 C     3.480322    -0.981423     1.237743
 H     2.683950    -1.262520     1.928935
 C     4.195384    -0.659943    -1.056102
 H     3.955203    -0.693179    -2.119680
 C     4.734055    -0.578444     1.688615
 H     4.974423    -0.540227     2.752665
 C     5.451006    -0.256990    -0.608182
 H     6.240633     0.027912    -1.305821
 C     5.703570    -0.219084     0.758281
 F     6.904355     0.168895     1.187980
 C     0.458261     0.919999    -3.163253
 H    -0.575573     0.534584    -3.130219
 H     0.446063     1.980437    -2.860821
 H     0.838210     0.841665    -4.190707
 C     1.997611     1.895242    -0.076788
 H     2.828639     1.727274     0.624229
 H     2.394866     1.905312    -1.101954
 H     1.520093     2.860814     0.141419
