 102
scf done:    -3061.301806
 C    -0.450991    -3.632181    -1.438746
 H    -0.663050    -4.118975    -2.397377
 H     0.554436    -3.928466    -1.112269
 C    -1.527295    -3.814750    -0.389919
 H    -2.408010    -4.358233    -0.760105
 H    -1.161566    -4.284833     0.535441
 H    -1.943228    -2.822707    -0.027076
Rh    -0.864376    -1.586368    -1.386669
 O     1.699706    -2.070782     0.806163
 O     2.372876    -1.734072    -1.544719
 O     1.543325     0.295890    -0.195119
 O    -1.493653     1.655569    -1.924905
 O    -3.364242     0.482753    -0.740744
 O    -1.237397     1.014341     0.579780
 P    -1.703467     0.426986    -0.882207
 P     1.152849    -1.265034    -0.557215
 C    -1.501447    -1.624713    -3.163728
 O    -1.750694    -1.592525    -4.283536
 C     0.855068    -2.457906     1.810685
 C    -0.145593    -1.614808     2.293329
 H    -0.280738    -0.622115     1.859611
 C     1.051976    -3.744247     2.339212
 C     2.132281    -4.621915     1.787393
 H     2.021660    -4.750466     0.699354
 H     3.128055    -4.179193     1.948842
 H     2.116221    -5.613314     2.259734
 C    -0.979596    -2.058331     3.319316
 H    -1.762137    -1.396851     3.698082
 C     0.204461    -4.156722     3.369672
 H     0.340977    -5.155956     3.792235
 C    -0.807853    -3.329591     3.858374
 H    -1.457192    -3.680258     4.663620
 C     3.690002    -1.341768    -1.482235
 C     4.489361    -1.614277    -0.372029
 H     4.064821    -2.154587     0.473448
 C     4.217696    -0.666940    -2.578924
 H     3.576433    -0.484257    -3.443189
 C     5.799892    -1.151407    -0.348347
 H     6.413536    -1.345533     0.535685
 C     5.536749    -0.221468    -2.542303
 H     5.942295     0.317474    -3.403080
 C     6.345556    -0.436117    -1.421661
 C     7.743320     0.105961    -1.350155
 H     7.784019     0.999161    -0.703829
 H     8.115888     0.398669    -2.342027
 H     8.442647    -0.631194    -0.927406
 C     2.630868     0.812879     0.468529
 C     3.489080     1.659512    -0.231343
 H     3.297879     1.850641    -1.287667
 C     2.840859     0.566028     1.823252
 H     2.150365    -0.069802     2.377576
 C     4.585965     2.213976     0.415097
 H     5.262536     2.862471    -0.148502
 C     3.947835     1.130611     2.454948
 H     4.112976     0.923792     3.515908
 C     4.847017     1.949896     1.766233
 C     6.066141     2.511849     2.438189
 H     6.242441     3.558449     2.147208
 H     6.968494     1.941722     2.159645
 H     5.978428     2.473007     3.533266
 C    -1.892120     2.972169    -1.783016
 C    -3.229602     3.314465    -1.957071
 H    -3.949082     2.528876    -2.188957
 C    -0.905440     3.925774    -1.500590
 C     0.533738     3.528545    -1.395387
 H     1.120902     4.302775    -0.883923
 H     0.657989     2.581605    -0.854843
 H     0.965622     3.374673    -2.398536
 C    -3.618737     4.641703    -1.798399
 H    -4.668267     4.917453    -1.924011
 C    -1.329452     5.247576    -1.336120
 H    -0.583939     6.008724    -1.091268
 C    -2.668511     5.608043    -1.474829
 H    -2.968321     6.649460    -1.337496
 C    -3.965949    -0.645357    -0.225218
 C    -4.666431    -1.491517    -1.081253
 H    -4.738432    -1.234379    -2.139428
 C    -3.846779    -0.955663     1.128421
 H    -3.291545    -0.285773     1.786989
 C    -5.244553    -2.651983    -0.575213
 H    -5.790465    -3.314182    -1.252665
 C    -4.422453    -2.125669     1.616377
 H    -4.311668    -2.371355     2.675810
 C    -5.123909    -2.997736     0.776504
 C    -5.690932    -4.284747     1.300725
 H    -6.556020    -4.616882     0.709019
 H    -6.009165    -4.189230     2.349021
 H    -4.936806    -5.088835     1.260483
 C    -1.446753     2.223293     1.206298
 C    -2.706447     2.815148     1.293169
 H    -3.569234     2.328505     0.839275
 C    -0.339846     2.827673     1.794980
 H     0.633083     2.337359     1.732978
 C    -2.832369     4.046812     1.925499
 H    -3.817712     4.518727     1.967795
 C    -0.490098     4.056526     2.432101
 H     0.386129     4.530894     2.882407
 C    -1.731185     4.697446     2.495779
 C    -1.882827     6.050301     3.127348
 H    -2.766514     6.094873     3.782040
 H    -2.010770     6.829878     2.357672
 H    -1.001277     6.317857     3.726917
