  82
scf done:    -2151.254519
 C    -3.675626    -0.792839    -1.047941
 H    -4.371891    -1.074851    -0.238473
 H    -3.800454     0.295692    -1.186672
 C    -4.063277    -1.493500    -2.342843
 H    -4.107463    -2.587900    -2.225147
 H    -5.054126    -1.165871    -2.710486
 H    -3.340941    -1.291343    -3.151261
Rh    -1.663604    -1.121137    -0.494278
 O    -0.673673     1.982071     0.772603
 C    -3.333452     1.647969     1.052733
 C    -1.356631     0.241466     2.621465
 O     1.218781    -1.139373     1.257093
 C     1.336111    -2.981701    -0.733377
 C     1.562903    -0.174097    -1.356702
 P     0.615309    -1.347922    -0.306225
 P    -1.772951     0.690688     0.902463
 C    -1.974027    -2.939354    -0.648778
 O    -2.167282    -4.068673    -0.519897
 C    -0.309128     2.516379    -0.420925
 C    -0.936560     2.217968    -1.633481
 H    -1.795138     1.542184    -1.662552
 C     0.785622     3.388659    -0.414566
 H     1.253299     3.635710     0.540605
 C    -0.434644     2.751219    -2.820767
 H    -0.929683     2.494230    -3.761363
 C     1.267846     3.912723    -1.607023
 H     2.131066     4.584042    -1.581466
 C     0.679393     3.593372    -2.839136
 C     1.243108     4.125271    -4.124701
 H     1.468253     5.200453    -4.054162
 H     0.544774     3.979817    -4.960935
 H     2.184496     3.613565    -4.386420
 H    -3.520805     2.087366     0.058330
 H    -4.139100     0.909587     1.200778
 C    -3.359388     2.731039     2.122483
 H    -2.469772     3.372025     2.009509
 H    -3.278723     2.269014     3.120533
 C    -4.621496     3.577857     2.059448
 H    -4.709645     4.089416     1.087726
 H    -5.525022     2.961103     2.190045
 H    -4.627245     4.349473     2.844325
 H    -0.345833    -0.190268     2.567386
 H    -1.300433     1.161681     3.224973
 C    -2.330737    -0.771393     3.211606
 H    -2.418225    -1.622259     2.514431
 H    -3.340287    -0.329903     3.281812
 C    -1.891491    -1.262534     4.581841
 H    -0.903945    -1.747122     4.527114
 H    -1.812912    -0.431595     5.301328
 H    -2.602811    -1.994906     4.992611
 C     2.452655    -0.641434     1.561283
 C     2.629239     0.739783     1.661318
 H     1.769298     1.391846     1.496337
 C     3.524831    -1.499370     1.804259
 H     3.367776    -2.578276     1.749416
 C     3.887226     1.253674     1.957669
 H     4.019029     2.337775     2.019719
 C     4.777304    -0.968650     2.105123
 H     5.615212    -1.647954     2.285146
 C     4.986555     0.413350     2.178328
 C     6.334205     0.979294     2.521488
 H     6.534706     1.907350     1.965830
 H     7.140328     0.266556     2.296163
 H     6.401138     1.222395     3.595216
 H     2.421031    -2.963327    -0.537582
 H     0.887822    -3.695888    -0.022371
 C     1.043614    -3.407558    -2.168455
 H     1.603577    -2.762755    -2.866682
 H    -0.022581    -3.232986    -2.391480
 C     1.385191    -4.866443    -2.427251
 H     2.446641    -5.075126    -2.217951
 H     0.781347    -5.529004    -1.787419
 H     1.188972    -5.143935    -3.473865
 H     0.970904    -0.128665    -2.287972
 H     1.425715     0.817862    -0.900155
 C     3.035867    -0.408797    -1.673530
 H     3.162745    -1.368245    -2.201226
 H     3.618493    -0.490650    -0.743753
 C     3.598338     0.721163    -2.523813
 H     3.049981     0.818417    -3.474870
 H     3.512916     1.685372    -1.998240
 H     4.660398     0.556259    -2.760798
