 110
scf done:    -2917.643593
 C     1.121219     0.717258     3.418166
 H     0.907990     0.243276     4.388956
 H     2.174405     0.466383     3.211600
 C     0.920695     2.222280     3.545243
 H     1.564209     2.669354     4.326762
 H     1.137782     2.762542     2.607638
 H    -0.120548     2.465730     3.811132
Rh    -0.121581    -0.005290     1.854559
 O     0.809099     1.363174    -0.960763
 C     3.003524     1.551515     0.739224
 C     2.221569    -0.944929    -0.612231
 O    -0.855485    -1.473943    -1.032448
 C    -3.061460    -1.612633     0.644005
 C    -2.265837     0.816501    -0.844730
 P    -1.587835    -0.555639     0.189792
 P     1.531386     0.499189     0.293234
 C    -1.087391    -0.788775     3.222270
 O    -1.636985    -1.342027     4.067580
 C     1.429920     2.010903    -1.990957
 C     1.927738     1.300189    -3.083702
 H     1.812296     0.216434    -3.109371
 C     1.474655     3.415684    -1.951413
 C     0.807966     4.168268    -0.839845
 H    -0.268238     3.938454    -0.799925
 H     1.206551     3.901242     0.151057
 H     0.928367     5.251617    -0.972269
 C     2.555018     1.978952    -4.125302
 H     2.954966     1.419093    -4.973616
 C     2.114211     4.070421    -3.009193
 H     2.169998     5.162166    -2.992024
 C     2.665346     3.367040    -4.079606
 H     3.161983     3.907297    -4.888451
 H     2.713049     2.564073     0.424173
 H     3.011904     1.563601     1.836879
 C     4.363680     1.220423     0.194557
 C     4.752707     1.723453    -1.054017
 H     4.051641     2.337297    -1.623232
 C     5.281909     0.454272     0.945011
 C     4.943299    -0.073770     2.307509
 H     4.051148    -0.717728     2.289139
 H     4.741960     0.743640     3.019032
 H     5.771250    -0.671188     2.711211
 C     6.018567     1.472130    -1.575882
 H     6.293791     1.879342    -2.551416
 C     6.550107     0.212950     0.403721
 H     7.261089    -0.381298     0.983893
 C     6.923929     0.709702    -0.842063
 H     7.922136     0.503519    -1.235616
 H     1.339299    -1.352627    -1.132842
 H     2.919339    -0.551937    -1.361586
 C     2.884263    -1.999655     0.233080
 C     2.277226    -2.450585     1.411488
 H     1.319339    -2.004905     1.715596
 C     4.109106    -2.568793    -0.175162
 C     4.762144    -2.184680    -1.470825
 H     5.716935    -2.712310    -1.598828
 H     4.971842    -1.106002    -1.524494
 H     4.121358    -2.438569    -2.331321
 C     2.880348    -3.417096     2.212119
 H     2.389939    -3.740760     3.133229
 C     4.703541    -3.532835     0.646444
 H     5.658516    -3.967431     0.338220
 C     4.107958    -3.952952     1.833875
 H     4.600534    -4.704676     2.455533
 C    -1.477913    -2.334348    -1.888581
 C    -2.134158    -1.863818    -3.026154
 H    -2.150820    -0.791191    -3.223715
 C    -1.381354    -3.711027    -1.616870
 C    -0.600704    -4.189190    -0.430262
 H     0.456140    -3.887271    -0.501368
 H    -0.970760    -3.756193     0.512572
 H    -0.642892    -5.283092    -0.344766
 C    -2.747241    -2.763965    -3.895039
 H    -3.264164    -2.393711    -4.783294
 C    -2.010129    -4.591079    -2.503040
 H    -1.953226    -5.664877    -2.305193
 C    -2.695151    -4.130217    -3.626918
 H    -3.177409    -4.842020    -4.300428
 H    -2.864495    -2.591497     0.182557
 H    -2.987699    -1.757848     1.729499
 C    -4.438727    -1.157756     0.262699
 C    -5.036013    -1.659079    -0.900533
 H    -4.472348    -2.353861    -1.528871
 C    -5.160117    -0.267462     1.085744
 C    -4.567974     0.275963     2.351952
 H    -4.371562    -0.524776     3.083668
 H    -5.244027     1.002611     2.821598
 H    -3.611045     0.789033     2.170235
 C    -6.332704    -1.298989    -1.259127
 H    -6.780345    -1.707106    -2.168221
 C    -6.461230     0.083051     0.708897
 H    -7.023056     0.772525     1.344627
 C    -7.050267    -0.423715    -0.447192
 H    -8.069131    -0.132331    -0.713271
 H    -1.395258     1.094566    -1.460281
 H    -3.036971     0.397090    -1.502626
 C    -2.779905     2.016290    -0.095543
 C    -2.041392     2.557738     0.964405
 H    -1.096306     2.077721     1.254306
 C    -3.991262     2.633168    -0.471914
 C    -4.784391     2.152605    -1.651789
 H    -5.073207     1.096082    -1.552234
 H    -4.207615     2.249633    -2.586335
 H    -5.707190     2.737152    -1.767116
 C    -2.496011     3.660857     1.681002
 H    -1.900951     4.050782     2.510061
 C    -4.437469     3.737347     0.263474
 H    -5.381688     4.209488    -0.021730
 C    -3.709588     4.248544     1.335338
 H    -4.087500     5.109707     1.891802
