  98
scf done:    -2760.495240
 C     1.664188    -3.760391    -0.122862
 H     1.390610    -4.652239    -0.708216
 H     2.570227    -3.357307    -0.600890
 C     1.952479    -4.157338     1.318153
 H     2.793681    -4.872919     1.390351
 H     2.226676    -3.291719     1.944053
 H     1.080056    -4.632829     1.794663
Rh     0.112174    -2.310901    -0.068810
 O     1.571730     0.410881     1.158201
 C     3.513627    -1.060325     0.003368
 C     1.669653     0.372827    -1.641482
 O    -1.554126     0.325996    -1.059103
 C    -3.309959    -1.446546     0.006950
 C    -1.658133     0.155558     1.717101
 P    -1.602811    -0.811968     0.170372
 P     1.739628    -0.644966    -0.130831
 C    -0.982755    -3.729290    -0.547865
 O    -1.630173    -4.600019    -0.922721
 C     1.950501     1.717042     1.288061
 C     3.281221     2.084931     1.490678
 H     4.058655     1.320044     1.508071
 C     0.953301     2.692680     1.277887
 H    -0.084592     2.385667     1.144437
 C     3.603889     3.431660     1.649141
 H     4.650636     3.711778     1.797613
 C     1.293144     4.030836     1.441042
 H     0.499683     4.783569     1.423074
 C     2.623379     4.429503     1.624169
 C     2.976017     5.875801     1.819755
 H     2.750944     6.204998     2.848036
 H     2.403565     6.525281     1.140373
 H     4.045726     6.057814     1.643226
 C     4.062400    -1.300595     1.269217
 H     3.451895    -1.153229     2.163126
 C     4.299411    -1.250031    -1.135344
 H     3.868080    -1.064969    -2.123226
 C     5.388106    -1.705814     1.379826
 H     5.822155    -1.884212     2.366610
 C     5.632495    -1.667095    -1.037768
 C     6.451073    -1.890402    -2.275863
 H     6.255788    -1.115093    -3.031491
 H     7.527704    -1.892144    -2.054469
 H     6.205334    -2.861564    -2.736485
 C     6.165455    -1.886976     0.236187
 H     7.206846    -2.205743     0.334123
 C     2.453887     1.521428    -1.832358
 H     3.192799     1.823118    -1.089449
 C     0.758737    -0.012259    -2.627347
 H     0.165600    -0.916337    -2.457108
 C     2.280520     2.281878    -2.983844
 H     2.881950     3.181687    -3.133465
 C     0.571322     0.749082    -3.785941
 C    -0.477425     0.353170    -4.782243
 H    -0.434543    -0.723827    -5.003405
 H    -1.482181     0.562692    -4.378776
 H    -0.372577     0.905070    -5.726900
 C     1.341794     1.903910    -3.945400
 H     1.205931     2.519340    -4.839282
 C    -2.190779     1.518524    -1.233164
 C    -1.392333     2.656086    -1.374007
 H    -0.308003     2.548944    -1.313354
 C    -3.578366     1.627723    -1.343709
 H    -4.203518     0.738760    -1.253770
 C    -1.983821     3.894937    -1.593724
 H    -1.343938     4.776180    -1.696959
 C    -4.152889     2.879754    -1.557550
 H    -5.241385     2.955526    -1.632934
 C    -3.374780     4.035447    -1.683148
 C    -4.000789     5.376291    -1.937786
 H    -3.883390     5.677730    -2.992119
 H    -3.534394     6.161946    -1.323977
 H    -5.077479     5.367126    -1.716173
 C    -3.726161    -1.889549    -1.256388
 H    -3.052963    -1.799829    -2.113104
 C    -4.169011    -1.575784     1.099123
 H    -3.842955    -1.232708     2.084656
 C    -4.997070    -2.428048    -1.413407
 H    -5.327927    -2.764729    -2.398782
 C    -5.448259    -2.130237     0.956068
 C    -6.345561    -2.285452     2.149373
 H    -7.395529    -2.416817     1.851848
 H    -6.056657    -3.167887     2.744033
 H    -6.282727    -1.411983     2.815322
 C    -5.851381    -2.545566    -0.315798
 H    -6.849256    -2.972222    -0.449766
 C    -2.523288     1.237889     1.942888
 H    -3.273252     1.516658     1.202116
 C    -0.729494    -0.197315     2.698583
 H    -0.064161    -1.044956     2.506938
 C    -2.416035     1.963444     3.124957
 H    -3.081949     2.811521     3.301657
 C    -0.605612     0.530320     3.886632
 C     0.463015     0.177145     4.877912
 H     0.521464    -0.910148     5.035663
 H     1.448329     0.505717     4.507027
 H     0.293234     0.659493     5.850790
 C    -1.460306     1.618825     4.081554
 H    -1.376170     2.208380     4.998853
