  90
scf done:    -3300.927179
 C    -0.288965    -3.644426    -1.423319
 H    -0.476400    -4.138429    -2.383107
 H     0.722596    -3.904640    -1.085910
 C    -1.368085    -3.852558    -0.384889
 H    -2.223930    -4.434096    -0.754974
 H    -0.996275    -4.291738     0.552756
 H    -1.825400    -2.868599    -0.041845
Rh    -0.779186    -1.615588    -1.374842
 O     1.803927    -1.984107     0.820032
 O     2.459868    -1.639905    -1.534854
 O     1.558402     0.363763    -0.197058
 O    -1.527843     1.593558    -1.928888
 O    -3.357586     0.363422    -0.740153
 O    -1.257503     0.977448     0.581064
 P    -1.694103     0.364780    -0.881924
 P     1.221834    -1.214723    -0.547821
 C    -1.390812    -1.675609    -3.162827
 O    -1.626152    -1.651029    -4.285190
 C     0.972432    -2.421126     1.817408
 C    -0.072708    -1.631638     2.296515
 H    -0.254603    -0.644800     1.866333
 C     1.230745    -3.698480     2.340189
 C     2.359733    -4.517150     1.795166
 H     2.276024    -4.633085     0.703457
 H     3.331240    -4.033283     1.984745
 H     2.380161    -5.515700     2.251660
 C    -0.890658    -2.121932     3.314252
 H    -1.707457    -1.502796     3.692414
 C     0.396887    -4.158664     3.361794
 H     0.579648    -5.152122     3.780117
 C    -0.659144    -3.386236     3.847171
 H    -1.295914    -3.774179     4.645157
 C     3.758355    -1.194121    -1.478521
 C     4.575549    -1.443364    -0.374941
 H     4.175308    -1.999752     0.472053
 C     4.247750    -0.492584    -2.578998
 H     3.588595    -0.326999    -3.432936
 C     5.875492    -0.947681    -0.356501
 H     6.531334    -1.109011     0.500602
 C     5.551536    -0.005119    -2.567422
 H     5.959884     0.551595    -3.412742
 C     6.345554    -0.228351    -1.448910
 F     7.587759     0.253243    -1.426113
 C     2.605018     0.921081     0.496466
 C     3.449032     1.800949    -0.181534
 H     3.285509     1.977034    -1.245030
 C     2.780404     0.684133     1.860127
 H     2.102941     0.016539     2.392290
 C     4.496934     2.417874     0.491756
 H     5.180209     3.097009    -0.020803
 C     3.831722     1.299711     2.536352
 H     3.996849     1.125683     3.601033
 C     4.681324     2.152840     1.844318
 F     5.689096     2.736552     2.491286
 C    -1.976455     2.895905    -1.791357
 C    -3.324284     3.186750    -1.976779
 H    -4.011524     2.375321    -2.217335
 C    -1.028766     3.885447    -1.500128
 C     0.424086     3.544191    -1.383976
 H     0.976666     4.341506    -0.869368
 H     0.581665     2.602154    -0.843281
 H     0.868842     3.408121    -2.384030
 C    -3.764838     4.498320    -1.820710
 H    -4.822706     4.734583    -1.956004
 C    -1.504041     5.190249    -1.338708
 H    -0.790769     5.979716    -1.087852
 C    -2.854699     5.499454    -1.488218
 H    -3.194679     6.528300    -1.351277
 C    -3.931948    -0.779423    -0.231282
 C    -4.607125    -1.639197    -1.096770
 H    -4.670672    -1.383390    -2.155561
 C    -3.812327    -1.087809     1.124027
 H    -3.269510    -0.409794     1.784408
 C    -5.176079    -2.809746    -0.604460
 H    -5.709080    -3.502399    -1.257962
 C    -4.371452    -2.263368     1.618671
 H    -4.281835    -2.537208     2.670992
 C    -5.045947    -3.109475     0.747319
 F    -5.578154    -4.236118     1.216632
 C    -1.521926     2.174017     1.208730
 C    -2.805603     2.715022     1.284412
 H    -3.642181     2.201614     0.811744
 C    -0.441793     2.816199     1.812264
 H     0.549517     2.364771     1.750646
 C    -2.997385     3.932214     1.930614
 H    -3.985589     4.391487     1.984649
 C    -0.635908     4.028464     2.467201
 H     0.193740     4.555851     2.941035
 C    -1.911310     4.577771     2.508745
 F    -2.098861     5.746425     3.121400
