  52
scf done:    -2677.374041
 C    -4.482426    -0.092612    -0.356343
 H    -5.086594    -0.582203    -1.135638
 H    -4.941418    -0.406344     0.595117
 C    -4.584823     1.417323    -0.534520
 H    -5.634123     1.768009    -0.523544
 H    -4.056768     1.980283     0.254662
 H    -4.156208     1.745380    -1.495974
Rh    -2.445455    -0.693399    -0.441801
 O    -1.444866     1.486084     2.038709
 C    -3.674369     0.339477     2.788814
 C    -1.244984    -1.092715     2.814134
 O     0.846228    -0.648245     0.374911
 C     0.143133    -3.028401    -0.768361
 C     0.466000    -0.704024    -2.346501
 P    -0.254431    -1.244175    -0.757581
 P    -2.221426     0.015623     1.745257
 C    -2.994777    -1.788103    -1.831764
 O    -3.360456    -2.545963    -2.615606
 C    -0.567090     2.033322     1.154997
 C    -0.899333     2.242227    -0.186040
 H    -1.890609     1.961892    -0.551413
 C     0.689617     2.412367     1.628213
 H     0.927560     2.242831     2.679556
 C     0.036338     2.796576    -1.055220
 H    -0.212637     2.960551    -2.105182
 C     1.624738     2.972903     0.765609
 H     2.616822     3.251625     1.123842
 C     1.298023     3.145955    -0.578261
Cl     2.494433     3.756378    -1.680320
 H    -4.222310    -0.600985     2.942922
 H    -3.342866     0.741397     3.756833
 H    -4.341531     1.061053     2.300331
 H    -1.190458    -0.701577     3.840663
 H    -1.716434    -2.087003     2.814944
 H    -0.236536    -1.172269     2.387392
 C     2.196061    -0.844254     0.331906
 C     3.016051     0.026536    -0.389985
 H     2.570690     0.854849    -0.940488
 C     2.767244    -1.886062     1.066374
 H     2.119808    -2.552832     1.639144
 C     4.396326    -0.147620    -0.383985
 H     5.040362     0.534748    -0.940903
 C     4.147754    -2.063915     1.076124
 H     4.601394    -2.873652     1.649773
 C     4.957558    -1.194223     0.346973
Cl     6.676008    -1.411152     0.356468
 H     1.211448    -3.220954    -0.948107
 H    -0.161788    -3.473108     0.189414
 H    -0.452264    -3.499828    -1.564548
 H     0.420712     0.391912    -2.408773
 H     1.504457    -1.041946    -2.476274
 H    -0.158364    -1.123022    -3.149445
