  90
scf done:    -4742.042532
 C    -1.130936    -3.690786    -1.276440
 H    -1.419804    -4.201333    -2.201799
 H    -0.188325    -4.123122    -0.916868
 C    -2.222680    -3.608688    -0.233857
 H    -3.178104    -4.040527    -0.562949
 H    -1.935761    -4.038903     0.737014
 H    -2.479670    -2.532376     0.030528
Rh    -1.208106    -1.606460    -1.375243
 O     1.225551    -2.305059     0.913419
 O     1.965860    -2.292900    -1.439034
 O     1.463911    -0.043534    -0.291585
 O    -1.321747     1.637830    -2.177985
 O    -3.353882     0.873072    -0.922976
 O    -1.171177     1.175760     0.374028
 P    -1.719180     0.546393    -1.045322
 P     0.822415    -1.550196    -0.523499
 C    -1.796677    -1.673387    -3.170143
 O    -2.010912    -1.685128    -4.296761
 C     0.316686    -2.476502     1.925151
 C    -0.533721    -1.446431     2.325296
 H    -0.497293    -0.479628     1.819575
 C     0.292617    -3.735922     2.545325
 C     1.217383    -4.817997     2.080930
 H     1.099580    -5.005416     1.002282
 H     2.271129    -4.536559     2.235993
 H     1.030246    -5.756108     2.620148
 C    -1.438987    -1.669619     3.362593
 H    -2.101886    -0.861614     3.680898
 C    -0.622431    -3.926460     3.583195
 H    -0.659542    -4.901169     4.077000
 C    -1.486812    -2.909853     3.991551
 H    -2.192941    -3.089477     4.805094
 C     3.320886    -2.080920    -1.388450
 C     4.067364    -2.360154    -0.242974
 H     3.568460    -2.770628     0.634495
 C     3.938551    -1.571327    -2.528972
 H     3.332554    -1.382347    -3.416843
 C     5.425106    -2.060463    -0.217585
 H     6.015682    -2.237317     0.682377
 C     5.299705    -1.284140    -2.510434
 H     5.794497    -0.869056    -3.389893
 C     6.031456    -1.508468    -1.345195
Cl     7.708994    -1.080284    -1.291548
 C     2.604128     0.346924     0.364917
 C     3.600309     0.987999    -0.371329
 H     3.460007     1.126473    -1.443619
 C     2.747465     0.171538     1.741427
 H     1.954609    -0.301522     2.320608
 C     4.770495     1.401062     0.252985
 H     5.571203     1.870625    -0.320031
 C     3.918590     0.587935     2.369434
 H     4.050121     0.444562     3.443011
 C     4.930629     1.186950     1.622144
Cl     6.400237     1.671636     2.399278
 C    -1.507349     3.009918    -2.133606
 C    -2.773227     3.542620    -2.355260
 H    -3.603920     2.865496    -2.555472
 C    -0.386441     3.814189    -1.891206
 C     0.974326     3.209084    -1.738761
 H     1.665994     3.911276    -1.254656
 H     0.947939     2.281730    -1.152313
 H     1.389764     2.943732    -2.725422
 C    -2.952863     4.921403    -2.282632
 H    -3.945057     5.348244    -2.445519
 C    -0.602012     5.193250    -1.811174
 H     0.248631     5.844509    -1.594300
 C    -1.867640     5.746650    -1.995127
 H    -2.003417     6.827614    -1.918881
 C    -4.127312    -0.110022    -0.351845
 C    -4.940479    -0.892224    -1.170478
 H    -4.960077    -0.695355    -2.243564
 C    -4.065098    -0.349424     1.020653
 H    -3.415317     0.264913     1.645794
 C    -5.695267    -1.920362    -0.615720
 H    -6.330531    -2.546273    -1.244127
 C    -4.811002    -1.384226     1.577756
 H    -4.755789    -1.597054     2.646072
 C    -5.618300    -2.167704     0.755234
Cl    -6.522393    -3.476077     1.439589
 C    -1.195460     2.444717     0.902406
 C    -2.349068     3.228285     0.920749
 H    -3.273791     2.848384     0.487692
 C    -0.008340     2.913845     1.462333
 H     0.876390     2.275435     1.452371
 C    -2.294558     4.512707     1.451095
 H    -3.180714     5.148592     1.446160
 C     0.042659     4.194677     2.001831
 H     0.969262     4.579047     2.430745
 C    -1.098264     4.994905     1.979666
Cl    -1.029740     6.606554     2.611556
