  98
scf done:    -2760.509129
 C     0.761529    -1.586988    -3.293691
 H     1.681956    -1.158743    -3.726062
 H     1.060261    -2.537973    -2.823228
 C    -0.243097    -1.895429    -4.395516
 H    -0.496955    -1.006549    -4.994387
 H     0.141023    -2.658761    -5.097273
 H    -1.191173    -2.288902    -3.991727
Rh    -0.015498    -0.302797    -1.790714
 O     1.029053    -2.778704     0.418703
 C     3.027746    -1.911749    -1.037546
 C     1.996141    -0.311394     1.110368
 O    -0.545918     2.162901     0.642879
 C    -2.782361     1.647867    -0.903258
 C    -1.854765    -0.014399     1.249106
 P    -1.232296     0.892262    -0.223666
 P     1.432968    -1.319326    -0.328087
 C    -0.309536     0.901668    -3.172131
 O    -0.330358     1.703865    -3.997983
 C    -0.145890    -2.984275     1.088876
 C    -0.151659    -2.865524     2.479006
 H     0.775873    -2.585790     2.982595
 C    -1.302447    -3.365505     0.386653
 C    -1.293800    -3.471610    -1.103555
 H    -1.217622    -2.467178    -1.565035
 H    -0.426599    -4.044532    -1.463272
 H    -2.214640    -3.941195    -1.473541
 C    -1.319444    -3.109541     3.197420
 H    -1.321225    -3.008879     4.284912
 C    -2.459420    -3.614366     1.133631
 H    -3.368924    -3.907473     0.602058
 C    -2.477752    -3.487237     2.521583
 H    -3.397731    -3.684584     3.076073
 H     3.363462    -1.116894    -1.718498
 H     2.756845    -2.774538    -1.663525
 C     4.090279    -2.262394    -0.039467
 C     3.997903    -3.425799     0.737822
 H     3.142505    -4.090179     0.602803
 C     5.191377    -1.417982     0.146538
 H     5.275538    -0.505772    -0.449446
 C     4.975641    -3.726802     1.682710
 H     4.888193    -4.638133     2.279527
 C     6.170554    -1.720379     1.090584
 H     7.020057    -1.045712     1.221078
 C     6.064496    -2.873932     1.865018
 H     6.831680    -3.112228     2.605712
 H     2.492340    -1.001479     1.810048
 H     1.092222     0.075184     1.609366
 C     2.930786     0.819289     0.758827
 C     2.874855     1.487473    -0.469890
 H     2.109119     1.207764    -1.203743
 C     3.900359     1.213423     1.688780
 H     3.966776     0.691363     2.647117
 C     3.779260     2.504197    -0.769661
 H     3.714798     3.010922    -1.734628
 C     4.793793     2.240807     1.398170
 H     5.544691     2.530500     2.137428
 C     4.741470     2.885238     0.162346
 H     5.446183     3.687018    -0.070558
 C     0.198770     3.202090     0.173230
 C     0.157530     3.631245    -1.151142
 H    -0.488665     3.132910    -1.871633
 C     1.011439     3.850916     1.121018
 C     1.037165     3.377670     2.540859
 H     0.052557     3.487469     3.022913
 H     1.303339     2.311741     2.596589
 H     1.772713     3.943309     3.128110
 C     0.948105     4.704972    -1.558973
 H     0.913521     5.027608    -2.602036
 C     1.784037     4.927159     0.686187
 H     2.428506     5.431805     1.410787
 C     1.764795     5.356470    -0.641001
 H     2.386409     6.198329    -0.953254
 H    -2.507789     2.204994    -1.812301
 H    -3.167832     2.366969    -0.166306
 C    -3.807080     0.585958    -1.201323
 C    -5.033338     0.580690    -0.526637
 H    -5.249462     1.369211     0.197977
 C    -3.549807    -0.436744    -2.125894
 H    -2.601041    -0.444739    -2.670396
 C    -5.970958    -0.423902    -0.756528
 H    -6.921133    -0.407794    -0.217141
 C    -4.482205    -1.447377    -2.349020
 H    -4.257847    -2.236214    -3.071359
 C    -5.695820    -1.447191    -1.662208
 H    -6.429418    -2.237347    -1.839752
 H    -0.958553    -0.220610     1.855747
 H    -2.176323    -0.992717     0.864791
 C    -2.943515     0.584753     2.095312
 C    -4.072849    -0.187494     2.394599
 H    -4.145204    -1.198456     1.988424
 C    -2.868120     1.882020     2.619440
 H    -1.993902     2.494908     2.398403
 C    -5.101054     0.318723     3.185448
 H    -5.973124    -0.303049     3.402848
 C    -3.900678     2.393509     3.403801
 H    -3.825012     3.410135     3.797638
 C    -5.021835     1.615781     3.689929
 H    -5.828874     2.018184     4.306861
