 110
scf done:    -2617.852200
 C    -1.429623     1.093141    -3.135101
 H    -0.959379     1.097207    -4.130788
 H    -2.385739     0.569077    -3.266702
 C    -1.663688     2.527061    -2.684653
 H    -0.727478     3.107265    -2.650544
 H    -2.341090     3.069036    -3.371657
 H    -2.114197     2.582327    -1.679227
Rh    -0.132167     0.228540    -1.707039
 O    -2.471899     1.279988     0.707200
 C    -3.532783    -0.270981    -1.072668
 C    -1.733950    -1.376338     1.062328
 O     1.798321    -0.763427     1.143216
 C     3.291557    -0.386740    -1.151410
 C     1.931308     1.763201     0.455171
 P     1.703642     0.105313    -0.314954
 P    -1.908762    -0.032757    -0.215485
 C     0.701779    -0.588421    -3.123125
 O     1.127928    -1.255367    -3.963115
 C    -1.811873     2.031367     1.619650
 C    -0.800117     1.532242     2.444161
 H    -0.451437     0.506932     2.324394
 C    -2.252310     3.363504     1.759992
 C    -3.344458     3.881537     0.877003
 H    -3.589561     4.923677     1.122270
 H    -3.054584     3.833046    -0.184009
 H    -4.257088     3.273501     0.978097
 C    -0.230063     2.343401     3.425745
 H     0.555793     1.933767     4.065043
 C    -1.657848     4.153336     2.745116
 H    -1.996765     5.186670     2.859281
 C    -0.655422     3.657752     3.580720
 H    -0.212330     4.297952     4.346316
 H    -3.583652     0.685958    -1.625370
 C    -4.792871    -0.344447    -0.211013
 H    -4.776986     0.435593     0.563735
 H    -4.832116    -1.317936     0.306478
 C    -6.031337    -0.206073    -1.094084
 H    -6.943366    -0.275922    -0.478881
 H    -6.037541     0.802565    -1.545586
 C    -6.055757    -1.256407    -2.200196
 H    -6.928694    -1.103537    -2.855457
 H    -6.183497    -2.254755    -1.743071
 C    -4.767063    -1.248670    -3.017235
 H    -4.693995    -0.302929    -3.584274
 H    -4.782241    -2.057831    -3.765105
 C    -3.540555    -1.388119    -2.120548
 H    -3.580259    -2.367535    -1.619317
 H    -2.610585    -1.376085    -2.708617
 H    -0.687423    -1.259646     1.396010
 C    -1.835719    -2.777531     0.452322
 H    -1.184774    -2.861145    -0.432562
 H    -2.869445    -2.947376     0.109933
 C    -1.480498    -3.842862     1.484480
 H    -1.581492    -4.844094     1.035623
 H    -0.421089    -3.735726     1.763127
 C    -2.339494    -3.726259     2.736996
 H    -2.027237    -4.474450     3.483534
 H    -3.392035    -3.954996     2.487805
 C    -2.263621    -2.322068     3.324431
 H    -1.234201    -2.129291     3.678438
 H    -2.918110    -2.233483     4.206755
 C    -2.642798    -1.266483     2.290207
 H    -3.690105    -1.420250     1.989243
 H    -2.595660    -0.262909     2.734650
 C     1.842663    -2.117845     1.225092
 C     1.676294    -2.962386     0.124987
 H     1.438658    -2.539781    -0.853257
 C     2.080784    -2.643656     2.509263
 C     2.223296    -1.710781     3.671478
 H     2.417422    -2.262199     4.601303
 H     3.045532    -0.996326     3.507799
 H     1.311708    -1.106864     3.810366
 C     1.791727    -4.342413     0.286436
 H     1.664895    -4.994708    -0.580509
 C     2.187262    -4.029196     2.639839
 H     2.381185    -4.447135     3.631524
 C     2.056371    -4.880922     1.541880
 H     2.149957    -5.960899     1.672149
 H     2.999207    -1.283072    -1.727703
 C     4.468322    -0.791952    -0.262223
 H     4.162861    -1.557090     0.465930
 H     4.819029     0.075180     0.318082
 C     5.612786    -1.322403    -1.122506
 H     6.467422    -1.594919    -0.482295
 H     5.285602    -2.255180    -1.616282
 C     6.041620    -0.313063    -2.182106
 H     6.838124    -0.736019    -2.815505
 H     6.479480     0.570352    -1.682253
 C     4.862552     0.134702    -3.039309
 H     4.492606    -0.717292    -3.637093
 H     5.179831     0.905603    -3.760000
 C     3.719861     0.665673    -2.179891
 H     4.054348     1.577009    -1.655736
 H     2.866785     0.960022    -2.811974
 H     1.147232     1.722839     1.228245
 C     1.524823     2.889824    -0.496713
 H     0.551580     2.648456    -0.958165
 H     2.249401     2.973347    -1.324281
 C     1.439963     4.215982     0.250650
 H     1.182092     5.025870    -0.450770
 H     0.616236     4.159707     0.983270
 C     2.744091     4.531883     0.975404
 H     2.650108     5.474052     1.539469
 H     3.544826     4.694340     0.230465
 C     3.152230     3.396959     1.908982
 H     2.403993     3.309013     2.715517
 H     4.114939     3.624596     2.395274
 C     3.246204     2.063753     1.169405
 H     4.070280     2.117947     0.438089
 H     3.490689     1.250478     1.869976
