  76
scf done:    -2991.624656
 C    -3.992218    -0.135001    -0.906551
 H    -4.676841    -0.698076    -0.248399
 H    -4.028332     0.910525    -0.553442
 C    -4.487915    -0.177784    -2.345431
 H    -4.626267    -1.209204    -2.706432
 H    -5.457605     0.341358    -2.463743
 H    -3.780780     0.307627    -3.038788
Rh    -1.997430    -0.803777    -0.717363
 O    -0.643065     1.456496     1.578095
 C    -3.292662     1.171587     1.975461
 C    -1.341216    -0.854276     2.636920
 O     0.979990    -1.752218     0.569427
 C     0.765804    -2.612823    -1.994729
 C     1.253079     0.177446    -1.446574
 P     0.251120    -1.252705    -0.875275
 P    -1.843104     0.274684     1.294310
 C    -2.513869    -2.375799    -1.551059
 O    -2.823450    -3.440842    -1.863281
 C    -0.285030     2.367926     0.643604
 C    -1.010600     2.604494    -0.530118
 H    -1.948047     2.075740    -0.719364
 C     0.905462     3.070041     0.868757
 H     1.447174     2.900348     1.801152
 C    -0.513130     3.480039    -1.492861
 H    -1.064775     3.647109    -2.419419
 C     1.399480     3.946526    -0.089129
 H     2.337985     4.478221     0.075632
 C     0.698156     4.132308    -1.281129
Cl     1.345904     5.173053    -2.506814
 H    -3.504589     1.992133     1.269098
 H    -4.151459     0.485024     1.888321
 C    -3.148662     1.715962     3.390159
 H    -2.215395     2.298325     3.460590
 H    -3.042115     0.879602     4.100847
 C    -4.332007     2.578944     3.801188
 H    -4.440370     3.450109     3.135648
 H    -5.275597     2.011995     3.758049
 H    -4.215657     2.956477     4.828379
 H    -0.384520    -1.286168     2.306854
 H    -1.151920    -0.263009     3.547239
 C    -2.360356    -1.962484     2.876369
 H    -2.579190    -2.453587     1.912824
 H    -3.315558    -1.530509     3.222447
 C    -1.868368    -2.988641     3.884630
 H    -0.937745    -3.465008     3.538161
 H    -1.659075    -2.524755     4.861917
 H    -2.613088    -3.782951     4.043723
 C     2.263658    -1.491747     0.938206
 C     2.564669    -0.283725     1.571905
 H     1.757415     0.426642     1.760083
 C     3.266759    -2.440228     0.728180
 H     3.010435    -3.392539     0.260517
 C     3.872889    -0.003164     1.951822
 H     4.121868     0.941015     2.439038
 C     4.576177    -2.165505     1.112152
 H     5.370064    -2.895978     0.948571
 C     4.876058    -0.942224     1.711395
Cl     6.507658    -0.592206     2.176724
 H     1.857714    -2.749122    -1.923515
 H     0.294921    -3.524195    -1.589404
 C     0.333917    -2.390447    -3.440833
 H     0.903410    -1.549812    -3.871679
 H    -0.723376    -2.076526    -3.462653
 C     0.514844    -3.630307    -4.302174
 H     1.563735    -3.967433    -4.307882
 H    -0.102131    -4.461761    -3.926721
 H     0.218683    -3.439267    -5.344493
 H     0.612475     0.657243    -2.207093
 H     1.257670     0.889838    -0.607916
 C     2.666536    -0.013075    -1.986666
 H     2.637861    -0.615486    -2.909254
 H     3.279395    -0.580469    -1.270062
 C     3.331488     1.327100    -2.265993
 H     2.738647     1.938224    -2.965220
 H     3.437814     1.910669    -1.338133
 H     4.335247     1.195172    -2.697095
