  94
scf done:    -4670.215347
 C    -1.238689    -1.094012    -3.635469
 H    -1.087931    -2.071573    -4.118925
 H    -2.282688    -1.119569    -3.279336
 C    -1.054423     0.031462    -4.645537
 H    -1.784219    -0.030598    -5.474216
 H    -1.173897     1.029175    -4.190072
 H    -0.050586     0.014953    -5.099084
Rh     0.183216    -0.845018    -2.057552
 C    -2.518268     1.330202    -1.433889
 O    -2.903311    -1.214966    -0.801980
 O    -1.264905     0.058148     0.720715
 C     1.744422    -1.230902     1.133591
 O     3.220098    -0.389987    -1.084261
 O     1.589790     1.217926     0.142873
 P     1.685730    -0.340757    -0.469786
 P    -1.623077    -0.167013    -0.879953
 C     1.389362    -1.824135    -3.120258
 O     2.099146    -2.486393    -3.725518
 H    -1.726705     2.095316    -1.464192
 H    -2.772009     1.108889    -2.482320
 C    -3.697207     1.807502    -0.636649
 C    -3.482128     2.730980     0.392482
 H    -2.468760     3.100413     0.561983
 C    -5.003399     1.345341    -0.894221
 C    -5.308029     0.443876    -2.055849
 H    -4.728054    -0.488230    -2.014673
 H    -5.063857     0.935557    -3.012474
 H    -6.375813     0.187028    -2.083250
 C    -4.520956     3.160372     1.210126
 H    -4.325446     3.864866     2.021281
 C    -6.036560     1.784240    -0.057632
 H    -7.052293     1.425707    -0.246341
 C    -5.805725     2.669818     0.992205
 H    -6.633174     2.986418     1.631454
 C    -2.837972    -2.552367    -0.509026
 C    -4.052648    -3.172877    -0.212950
 H    -4.971163    -2.583099    -0.237111
 C    -1.650923    -3.283741    -0.491837
 H    -0.707273    -2.791712    -0.762735
 C    -4.084053    -4.526747     0.102525
 H    -5.028319    -5.021064     0.335426
 C    -1.683033    -4.639144    -0.176643
 H    -0.761411    -5.223399    -0.167028
 C    -2.895808    -5.256395     0.122831
Cl    -2.929487    -6.942227     0.520540
 C    -2.035279     0.394156     1.804396
 C    -3.333702    -0.074197     2.004366
 H    -3.804653    -0.723868     1.270451
 C    -1.433021     1.220492     2.752665
 H    -0.407047     1.549573     2.582879
 C    -4.044423     0.335601     3.126741
 H    -5.070930    -0.000562     3.277538
 C    -2.140417     1.625233     3.879330
 H    -1.681418     2.281303     4.620457
 C    -3.453401     1.191905     4.053593
Cl    -4.360451     1.728068     5.428747
 H     0.767943    -0.976858     1.575430
 H     1.690606    -2.293112     0.853122
 C     2.882005    -0.937318     2.063888
 C     2.806784     0.167637     2.918056
 H     1.896507     0.771081     2.919745
 C     4.042140    -1.738202     2.062206
 C     4.142689    -2.966654     1.205245
 H     3.907005    -2.757837     0.151411
 H     3.444549    -3.749520     1.546976
 H     5.156640    -3.386571     1.240702
 C     3.872769     0.514162     3.741898
 H     3.797111     1.383800     4.398782
 C     5.107000    -1.370192     2.889839
 H     6.018170    -1.973770     2.877128
 C     5.034846    -0.252961     3.717704
 H     5.887782     0.014521     4.345593
 C     4.442366    -0.027757    -0.578194
 C     5.529405    -0.806265    -0.976359
 H     5.358100    -1.642663    -1.656220
 C     4.635505     1.073884     0.255798
 H     3.789465     1.689106     0.554895
 C     6.803927    -0.523154    -0.497861
 H     7.657613    -1.135427    -0.792449
 C     5.909130     1.354209     0.738206
 H     6.066270     2.195824     1.413925
 C     6.985771     0.549421     0.372866
Cl     8.561991     0.881325     1.013853
 C     1.054936     2.242201    -0.581366
 C     0.425060     3.268599     0.124224
 H     0.396263     3.223251     1.213400
 C     1.120973     2.294828    -1.977602
 H     1.641059     1.511970    -2.534134
 C    -0.163920     4.329441    -0.556913
 H    -0.663207     5.132065    -0.012077
 C     0.518765     3.348144    -2.661600
 H     0.555022     3.387267    -3.751237
 C    -0.130546     4.357005    -1.951485
Cl    -0.894423     5.655408    -2.802790
