  76
scf done:    -2545.115390
 C     1.198596    -3.159047     0.660283
 H     1.308226    -4.050966     0.030249
 H     2.187624    -2.878908     1.046484
 C     0.157033    -3.319874     1.749054
 H    -0.485210    -4.201056     1.611108
 H     0.585387    -3.349711     2.764604
 H    -0.550587    -2.437312     1.774367
Rh     0.091526    -1.594355    -0.151533
 C     1.689918     0.871274     2.027694
 C     3.437090    -0.585511     0.241459
 C     1.671764     1.336970    -0.811605
 C    -1.708480     0.932662    -1.950050
 C    -3.313544    -0.821906    -0.285648
 C    -1.718764     1.161794     0.955943
 P    -1.642556    -0.064514    -0.404410
 P     1.687321    -0.031757     0.420267
 C    -0.164785    -2.466278    -1.759773
 O    -0.167361    -2.860574    -2.847899
 H     2.518484     1.597401     2.078716
 H     0.757453     1.456930     2.043025
 C     1.713901    -0.075580     3.220185
 H     2.610383    -0.717533     3.171046
 H     0.852143    -0.759150     3.140861
 C     1.676951     0.661639     4.549373
 H     2.558630     1.310951     4.671837
 H     0.784728     1.303682     4.622029
 H     1.659433    -0.038115     5.398600
 C     4.502786     0.001237     0.933785
 H     4.323370     0.795334     1.661096
 C     3.717769    -1.597475    -0.685901
 H     2.885171    -2.078300    -1.207089
 C     5.815220    -0.407723     0.711500
 H     6.653327     0.038760     1.249641
 C     5.024582    -2.006701    -0.930923
 H     5.252404    -2.793753    -1.651988
 C     6.058980    -1.405664    -0.224071
 F     7.311732    -1.797850    -0.442731
 C     1.733704     0.987737    -2.169726
 H     1.804209    -0.066720    -2.447799
 C     1.549926     2.688467    -0.474808
 H     1.507283     2.998139     0.569984
 C     1.664351     1.953767    -3.165678
 H     1.704431     1.689519    -4.223839
 C     1.456074     3.668764    -1.464211
 H     1.346073     4.725598    -1.213492
 C     1.508936     3.286928    -2.797396
 F     1.402832     4.215559    -3.745646
 H    -0.810620     1.570599    -1.920582
 H    -1.510109     0.202208    -2.752061
 C    -2.953506     1.748887    -2.264243
 H    -3.204091     2.406412    -1.414951
 H    -3.815605     1.073263    -2.383276
 C    -2.770488     2.586425    -3.521898
 H    -1.927682     3.288932    -3.416871
 H    -2.556103     1.949382    -4.394566
 H    -3.672429     3.173926    -3.750486
 C    -4.433785    -0.081055     0.119509
 H    -4.320628     0.966912     0.406078
 C    -3.483322    -2.170274    -0.620795
 H    -2.609548    -2.759012    -0.911001
 C    -5.694192    -0.665837     0.177838
 H    -6.574044    -0.102816     0.494421
 C    -4.740380    -2.767864    -0.571926
 H    -4.884829    -3.818475    -0.829853
 C    -5.830383    -2.005054    -0.173545
 F    -7.033609    -2.568573    -0.116654
 C    -1.916625     0.669879     2.256336
 H    -2.109337    -0.396213     2.406580
 C    -1.469961     2.527463     0.788815
 H    -1.306605     2.941625    -0.206671
 C    -1.859805     1.510203     3.360248
 H    -2.011243     1.136282     4.374337
 C    -1.398319     3.383096     1.889640
 H    -1.195459     4.449139     1.771722
 C    -1.588227     2.861426     3.161297
 F    -1.503618     3.665421     4.218088
