 112
scf done:    -2319.951973
 C    -1.798298     0.214453    -2.957346
 H    -1.480441    -0.071151    -3.969188
 H    -2.780774    -0.243917    -2.793107
 C    -1.829204     1.728718    -2.780810
 H    -1.445348     2.270342    -3.659466
 H    -2.836998     2.115920    -2.555023
 H    -1.188875     2.064650    -1.927544
Rh    -0.332483    -0.119828    -1.501728
 C    -2.391955     0.688781     1.419489
 C    -3.643394    -1.036292    -0.498983
 C    -1.523544    -2.083727     1.185177
 C     2.546112    -1.255544     0.194051
 C     2.782859     1.252069    -1.335409
 C     1.434343     1.202198     1.374970
 P     1.610391     0.286790    -0.240730
 P    -1.943937    -0.580969     0.141634
 C     0.651150    -1.078067    -2.714549
 O     1.216767    -1.842426    -3.376249
 H    -3.060802     0.255768     2.182297
 H    -1.458944     0.956904     1.938473
 C    -3.006710     1.939144     0.806123
 H    -2.311086     2.350632     0.055628
 H    -3.919117     1.676723     0.243044
 C    -3.350178     3.013216     1.828191
 H    -2.446669     3.267687     2.409735
 H    -4.072099     2.606824     2.560135
 C    -3.917991     4.280635     1.205151
 H    -3.193802     4.674449     0.470045
 H    -4.821464     4.025227     0.623412
 C    -4.250953     5.358025     2.224284
 H    -4.656640     6.261629     1.744624
 H    -3.356619     5.657211     2.794660
 H    -4.999061     5.003077     2.951428
 H    -3.888947    -0.191189    -1.168356
 C    -4.765565    -1.141069     0.534817
 H    -4.835315    -0.226011     1.141794
 H    -4.549480    -1.966214     1.237686
 C    -6.112402    -1.394990    -0.141754
 H    -6.901986    -1.499268     0.620590
 H    -6.378469    -0.506785    -0.743219
 C    -6.080509    -2.619621    -1.048357
 H    -7.048777    -2.742248    -1.560488
 H    -5.940205    -3.524525    -0.429139
 C    -4.943170    -2.529723    -2.059071
 H    -5.133790    -1.696088    -2.759018
 H    -4.897968    -3.444660    -2.671770
 C    -3.607540    -2.300560    -1.361016
 H    -3.398373    -3.170355    -0.713910
 H    -2.781935    -2.239790    -2.086813
 H    -2.497484    -2.520707     1.475343
 C    -0.769743    -1.762696     2.477299
 H    -1.335369    -1.051651     3.097785
 H     0.184296    -1.269259     2.225432
 C    -0.473116    -3.022417     3.286551
 H     0.087509    -2.757686     4.198303
 H    -1.427561    -3.463593     3.626972
 C     0.290741    -4.054690     2.466914
 H     0.459287    -4.968630     3.059404
 H     1.292334    -3.656454     2.221554
 C    -0.447949    -4.378644     1.174610
 H    -1.395647    -4.893391     1.418267
 H     0.137312    -5.083507     0.562046
 C    -0.747976    -3.120418     0.367460
 H     0.187744    -2.652537     0.023916
 H    -1.290386    -3.376628    -0.552238
 H     2.062446    -1.633744     1.110258
 H     2.262793    -1.970957    -0.594450
 C     4.060479    -1.279764     0.353775
 H     4.539200    -0.956904    -0.585850
 H     4.389866    -0.566993     1.126181
 C     4.566484    -2.671081     0.713776
 H     4.233158    -3.390163    -0.056281
 H     4.087481    -3.000548     1.654529
 C     6.079236    -2.751190     0.862427
 H     6.552021    -2.420977    -0.079494
 H     6.406249    -2.026671     1.629488
 C     6.576981    -4.140871     1.225369
 H     7.672584    -4.167704     1.325579
 H     6.294885    -4.878706     0.457198
 H     6.146906    -4.482194     2.180852
 H     3.157862     0.447565    -1.999169
 C     3.991511     1.937816    -0.692723
 H     4.549823     1.248066    -0.046612
 H     3.639507     2.758270    -0.044328
 C     4.922542     2.518345    -1.755271
 H     5.779561     3.015031    -1.271445
 H     5.341742     1.690500    -2.355677
 C     4.191199     3.488434    -2.674892
 H     4.869552     3.862021    -3.459157
 H     3.876632     4.371871    -2.089565
 C     2.961389     2.835633    -3.294483
 H     3.281031     2.027706    -3.977309
 H     2.408123     3.561489    -3.912298
 C     2.037811     2.246120    -2.234481
 H     1.620212     3.061090    -1.617866
 H     1.181265     1.738689    -2.705841
 H     0.621782     0.627226     1.853719
 C     0.890244     2.614798     1.151674
 H     0.016794     2.574128     0.479379
 H     1.649709     3.227147     0.637042
 C     0.526839     3.287969     2.470990
 H     0.168908     4.313861     2.286173
 H    -0.315846     2.745017     2.934865
 C     1.703361     3.291154     3.439230
 H     1.414545     3.757883     4.394796
 H     2.517185     3.912482     3.022917
 C     2.220552     1.876682     3.671351
 H     1.434545     1.281468     4.171272
 H     3.083964     1.886935     4.356280
 C     2.604946     1.195035     2.359984
 H     3.474147     1.712676     1.925560
 H     2.922602     0.160834     2.563067
