  88
scf done:    -2702.256781
 C     2.699372     1.779921    -2.734068
 H     2.421189     2.816388    -2.996955
 H     3.490437     1.891774    -1.968931
 C     3.283513     1.093562    -3.962998
 H     2.570189     1.087368    -4.801767
 H     4.203433     1.590049    -4.325126
 H     3.540288     0.038721    -3.773191
Rh     0.942538     0.915225    -1.890794
 C     1.876929    -1.253278     0.922001
 C     3.958205    -0.716107    -0.976326
 C     3.029874     1.356518     0.860422
 C    -2.305147     1.777834    -1.233745
 C    -1.902863    -1.033889    -2.098383
 C    -1.376400    -0.128436     0.750412
 P    -1.158265     0.337172    -1.049247
 P     2.401971     0.037517    -0.282437
 C     0.151895     1.326314    -3.504604
 O    -0.307587     1.500751    -4.546957
 H     2.735841    -1.504967     1.567088
 H     1.119804    -0.787883     1.571341
 C     1.314597    -2.500828     0.255929
 H     2.098148    -2.985683    -0.350235
 H     0.541700    -2.196053    -0.470265
 C     0.750804    -3.504035     1.249609
 H     1.518261    -3.819610     1.973779
 H    -0.084921    -3.074195     1.825341
 H     0.378055    -4.409244     0.745990
 H     3.625366    -1.577617    -1.575012
 H     4.353516     0.020394    -1.688396
 C     4.997726    -1.110021     0.026537
 C     5.953979    -0.183310     0.465073
 H     5.959684     0.823528     0.039733
 C     5.037977    -2.400298     0.571983
 H     4.320657    -3.151615     0.232188
 C     6.906270    -0.519233     1.422928
 H     7.654877     0.198753     1.762599
 C     5.983332    -2.755392     1.530924
 H     6.020457    -3.760986     1.953619
 C     6.905533    -1.805000     1.949809
 F     7.812471    -2.135088     2.867221
 H     3.666532     0.911262     1.639286
 H     3.659536     2.023856     0.251555
 C     1.876880     2.115270     1.448920
 C     1.151102     3.014599     0.653461
 H     1.442296     3.164161    -0.391274
 C     1.465059     1.909950     2.769505
 H     2.016438     1.210366     3.403427
 C     0.056000     3.702443     1.165827
 H    -0.510070     4.409348     0.556504
 C     0.363622     2.584718     3.296926
 H     0.030849     2.427927     4.324213
 C    -0.321541     3.476294     2.484353
 F    -1.390006     4.114844     2.970008
 H    -2.069786     2.421996    -0.369610
 H    -1.946071     2.334779    -2.113264
 C    -3.808381     1.550813    -1.337702
 H    -4.149629     0.849933    -0.561554
 H    -4.031731     1.076200    -2.307787
 C    -4.587732     2.851727    -1.223755
 H    -4.433503     3.314081    -0.235871
 H    -4.270083     3.579719    -1.987424
 H    -5.668581     2.685244    -1.346629
 H    -2.361134    -0.511419    -2.952636
 H    -1.017609    -1.545378    -2.503169
 C    -2.841447    -2.044348    -1.512348
 C    -2.331601    -3.196807    -0.898188
 H    -1.251339    -3.351921    -0.863095
 C    -4.233405    -1.903752    -1.579374
 H    -4.664666    -1.030686    -2.070757
 C    -3.168355    -4.158575    -0.337262
 H    -2.770563    -5.054570     0.142681
 C    -5.087190    -2.855514    -1.030026
 H    -6.171827    -2.744431    -1.079094
 C    -4.543487    -3.970404    -0.404273
 F    -5.355003    -4.880735     0.131504
 H    -1.041052    -1.171345     0.839442
 H    -0.621440     0.497499     1.252171
 C    -2.706503     0.057403     1.421380
 C    -3.072363     1.304173     1.947559
 H    -2.375075     2.140357     1.902686
 C    -3.613209    -1.000654     1.557190
 H    -3.344488    -1.991435     1.189606
 C    -4.313993     1.507572     2.542066
 H    -4.595832     2.479890     2.949890
 C    -4.859594    -0.817095     2.149205
 H    -5.567938    -1.641786     2.246944
 C    -5.201856     0.442262     2.624374
 F    -6.395787     0.627577     3.186662
