 102
scf done:    -3085.445774
 C     0.178205     1.278733     3.394016
 H    -0.005727     0.925664     4.420790
 H     1.273385     1.320523     3.303974
 C    -0.412200     2.671511     3.214759
 H    -1.492612     2.685482     3.429887
 H     0.057954     3.417566     3.884088
 H    -0.297430     3.053692     2.184684
Rh    -0.719436     0.055489     1.923437
 C     2.072400     1.829756     0.489327
 C     2.618433    -0.707488     1.972419
 C     1.426750    -0.844632    -0.745521
 C    -1.654132    -2.817450     0.059379
 C    -3.850558    -1.026238     0.775416
 C    -2.162756    -0.384018    -1.429166
 P    -2.045120    -1.006525     0.326438
 P     1.370570     0.127150     0.853106
 C    -1.808950    -0.537518     3.280974
 O    -2.382018    -1.023566     4.156219
 H     1.668840     2.091126    -0.501058
 H     1.556504     2.473641     1.215615
 C     3.556346     2.074039     0.519776
 C     4.307084     1.891998    -0.649220
 H     3.794032     1.603942    -1.564713
 C     4.218481     2.525138     1.685005
 C     3.491496     2.871267     2.952388
 H     3.130210     1.983163     3.494529
 H     2.607204     3.498428     2.764180
 H     4.151681     3.420679     3.636713
 C     5.685087     2.072235    -0.674541
 H     6.234272     1.911867    -1.605078
 C     5.609496     2.694832     1.643527
 H     6.120321     3.038491     2.547118
 C     6.347745     2.458592     0.487500
 H     7.430889     2.601470     0.490789
 H     3.044626     0.093771     2.590720
 H     1.996187    -1.321878     2.638408
 C     3.704558    -1.531479     1.351710
 C     3.484206    -2.885004     1.058957
 H     2.520486    -3.339147     1.306864
 C     4.964286    -0.991002     1.063187
 H     5.171527     0.054112     1.296912
 C     4.472909    -3.673036     0.473369
 H     4.306921    -4.727534     0.246211
 C     5.964748    -1.764095     0.481801
 H     6.945476    -1.342591     0.254767
 C     5.704905    -3.096959     0.186830
 F     6.658105    -3.841410    -0.371857
 H     1.650295    -1.877815    -0.441554
 H     0.380469    -0.833726    -1.068383
 C     2.285176    -0.432840    -1.898732
 C     1.827772     0.544198    -2.794534
 H     0.845096     1.001841    -2.643395
 C     3.533124    -1.020751    -2.134741
 H     3.901429    -1.793778    -1.459248
 C     2.604028     0.950669    -3.877311
 H     2.257454     1.714121    -4.575896
 C     4.319653    -0.628374    -3.213540
 H     5.295845    -1.079686    -3.399573
 C     3.848114     0.360616    -4.068707
 F     4.598994     0.743644    -5.099933
 H    -0.706220    -2.815243    -0.500917
 H    -1.418473    -3.204247     1.060220
 C    -2.691762    -3.638867    -0.640783
 C    -2.749279    -3.641432    -2.040411
 H    -1.992577    -3.088338    -2.602978
 C    -3.641375    -4.389606     0.086295
 C    -3.591231    -4.479139     1.585035
 H    -3.640693    -3.493083     2.070614
 H    -2.656344    -4.952724     1.927004
 H    -4.425843    -5.080512     1.969813
 C    -3.737413    -4.340549    -2.727482
 H    -3.758117    -4.326820    -3.819643
 C    -4.629189    -5.085059    -0.620265
 H    -5.366280    -5.665648    -0.058814
 C    -4.689978    -5.060588    -2.011312
 H    -5.473868    -5.613682    -2.533815
 H    -4.337579    -1.844848     0.224380
 H    -3.910952    -1.259325     1.849452
 C    -4.536551     0.273285     0.464761
 C    -4.109809     1.480751     1.035683
 H    -3.272366     1.473482     1.740183
 C    -5.595047     0.306616    -0.448155
 H    -5.944524    -0.626567    -0.898695
 C    -4.703411     2.688091     0.686522
 H    -4.362022     3.634942     1.108134
 C    -6.207169     1.507312    -0.802701
 H    -7.029973     1.543222    -1.518949
 C    -5.741026     2.686109    -0.238468
 F    -6.295919     3.843705    -0.597574
 H    -1.285664    -0.779680    -1.969612
 H    -3.040396    -0.854527    -1.898154
 C    -2.229713     1.112458    -1.587184
 C    -3.170558     1.693598    -2.444200
 H    -3.879385     1.055008    -2.976305
 C    -1.349509     1.963533    -0.907853
 H    -0.639798     1.532875    -0.194720
 C    -3.237976     3.073496    -2.618419
 H    -3.983155     3.531229    -3.271196
 C    -1.397278     3.344171    -1.070401
 H    -0.717831     4.006347    -0.530387
 C    -2.347521     3.884615    -1.927369
 F    -2.409839     5.206047    -2.084666
