  84
scf done:    -2452.968525
 C     1.335448    -3.400032    -0.379329
 H     1.176654    -3.688056    -1.436520
 H     2.340376    -2.945985    -0.353166
 C     1.368592    -4.637010     0.507396
 H     0.450700    -5.240285     0.431536
 H     2.213529    -5.302247     0.249325
 H     1.489669    -4.376467     1.572365
Rh    -0.186668    -1.935033    -0.107139
 C     1.294107     1.384851    -0.526253
 C     2.672157    -0.540524     1.238390
 C     2.738304    -0.766646    -1.686293
 C    -1.987721     0.578623    -1.651785
 C    -3.578688    -0.925734     0.168001
 C    -1.698450     0.942677     1.302246
 P    -1.850136    -0.331800    -0.015658
 P     1.627803    -0.440882    -0.263543
 C    -1.339645    -3.303753     0.351396
 O    -2.053115    -4.133636     0.702546
 H     0.449042     1.636081     0.128604
 H     0.934459     1.435397    -1.565166
 C     2.422690     2.339718    -0.315009
 C     3.423865     2.509307    -1.280973
 H     3.359916     1.963040    -2.225259
 C     2.517854     3.052739     0.886477
 H     1.738789     2.926683     1.643404
 C     4.507524     3.349818    -1.036383
 H     5.284010     3.466113    -1.796377
 C     3.598429     3.897465     1.128452
 H     3.659363     4.442740     2.073396
 C     4.601982     4.042198     0.171353
 H     5.452889     4.700600     0.361670
 C     2.234527    -1.393106     2.261707
 C     3.856417     0.189599     1.423334
 C     4.117595    -0.761534     3.632017
 C     4.570356     0.077425     2.614672
 C     2.949550    -1.500664     3.452138
 H     1.323311    -1.978979     2.093259
 H     2.593922    -2.171007     4.238098
 H     4.681426    -0.844424     4.564557
 H     5.488353     0.655111     2.745761
 H     4.232557     0.849199     0.641135
 C     4.091970    -1.094454    -1.580039
 C     2.149979    -0.710958    -2.957803
 C     4.267439    -1.238723    -3.988107
 C     2.909935    -0.934580    -4.101406
 C     4.851218    -1.327700    -2.727137
 H     4.559378    -1.176969    -0.597598
 H     5.908862    -1.583997    -2.629779
 H     4.865306    -1.419903    -4.884404
 H     2.438135    -0.884713    -5.085572
 H     1.078476    -0.507926    -3.051633
 H    -2.346919    -0.205120    -2.336630
 H    -0.956725     0.802284    -1.952766
 C    -2.838749     1.804802    -1.721092
 C    -2.246114     3.073713    -1.689190
 H    -1.156470     3.156328    -1.654353
 C    -4.237475     1.719730    -1.764281
 H    -4.717078     0.738792    -1.794403
 C    -3.026125     4.227599    -1.676860
 H    -2.543812     5.207587    -1.647061
 C    -5.018207     2.873100    -1.745635
 H    -6.107280     2.787859    -1.771582
 C    -4.416739     4.131139    -1.696001
 H    -5.031422     5.034243    -1.681111
 C    -4.050382    -1.842439    -0.783197
 C    -4.424162    -0.542662     1.212702
 C    -6.193721    -1.930934     0.323504
 C    -5.724200    -1.044022     1.288353
 C    -5.349631    -2.333379    -0.712827
 H    -3.385663    -2.188205    -1.580692
 H    -5.701695    -3.045004    -1.463345
 H    -7.212807    -2.320134     0.383584
 H    -6.373325    -0.735151     2.111289
 H    -4.069274     0.151732     1.976089
 C    -0.715907     0.711590     2.274240
 C    -2.481287     2.104015     1.398750
 C    -1.243656     2.798124     3.360540
 C    -2.245915     3.025786     2.417208
 C    -0.484168     1.631045     3.294738
 H    -0.124228    -0.204594     2.208711
 H     0.294577     1.430653     4.034615
 H    -1.062891     3.527912     4.153723
 H    -2.855319     3.931010     2.471799
 H    -3.282804     2.294382     0.685304
