 106
scf done:    -2989.474697
 C    -1.291448    -1.704879    -3.284670
 H    -1.113000    -2.742988    -3.605420
 H    -2.318762    -1.712301    -2.882102
 C    -1.199242    -0.760444    -4.476686
 H    -1.953928    -0.991768    -5.252005
 H    -1.349567     0.294170    -4.189351
 H    -0.211941    -0.811038    -4.963130
Rh     0.171999    -1.130570    -1.835496
 C    -2.606087     0.999568    -1.467527
 O    -2.847086    -1.409261    -0.397613
 O    -1.217524     0.174856     0.816678
 C     1.850607    -0.906989     1.302869
 O     3.219257    -0.404477    -1.078858
 O     1.564851     1.332682    -0.078661
 P     1.707680    -0.299397    -0.423478
 P    -1.621110    -0.339957    -0.700650
 C     1.377371    -2.245288    -2.747101
 O     2.088923    -2.991095    -3.245998
 H    -1.855150     1.783183    -1.654324
 H    -2.875631     0.589423    -2.453168
 C    -3.788087     1.554507    -0.727871
 C    -3.594568     2.649750     0.121262
 H    -2.594086     3.079136     0.201730
 C    -5.077413     1.001856    -0.865698
 C    -5.360481    -0.107486    -1.837133
 H    -4.743442    -0.993448    -1.633422
 H    -5.144113     0.206147    -2.872202
 H    -6.417868    -0.403236    -1.797859
 C    -4.637158     3.175170     0.875786
 H    -4.455443     4.018549     1.545475
 C    -6.114213     1.540119    -0.094442
 H    -7.116186     1.112700    -0.191468
 C    -5.904153     2.606341     0.776762
 H    -6.735239     2.999638     1.367267
 C    -2.710858    -2.670800     0.127635
 C    -3.880950    -3.271643     0.591424
 H    -4.824421    -2.727325     0.512881
 C    -1.494951    -3.344641     0.219635
 H    -0.584938    -2.875333    -0.175466
 C    -3.828942    -4.547129     1.144202
 H    -4.752285    -5.007006     1.507213
 C    -1.464575    -4.620703     0.776460
 H    -0.505602    -5.142679     0.841457
 C    -2.621928    -5.248575     1.248825
 C    -2.576801    -6.637151     1.818005
 H    -3.361435    -6.789375     2.573519
 H    -1.605563    -6.848408     2.288532
 H    -2.729832    -7.394294     1.030560
 C    -1.966389     0.661654     1.861023
 C    -3.229486     0.176085     2.199039
 H    -3.690948    -0.613999     1.611227
 C    -1.377492     1.664524     2.626620
 H    -0.378165     2.008526     2.356762
 C    -3.907609     0.741455     3.272191
 H    -4.906962     0.369648     3.513773
 C    -2.069992     2.213862     3.702450
 H    -1.599975     3.006444     4.291210
 C    -3.353714     1.774340     4.038421
 C    -4.126043     2.391231     5.167731
 H    -4.989846     2.962767     4.789504
 H    -3.502446     3.079699     5.755271
 H    -4.521574     1.624839     5.852175
 H     0.874304    -0.623509     1.726893
 H     1.838976    -2.002235     1.203300
 C     2.993200    -0.416851     2.138863
 C     2.887096     0.812395     2.797855
 H     1.953825     1.373568     2.716650
 C     4.184671    -1.162439     2.245409
 C     4.322365    -2.510005     1.598687
 H     4.072265    -2.480846     0.528199
 H     3.654154    -3.249970     2.071024
 H     5.351008    -2.883944     1.687722
 C     3.949620     1.330017     3.531200
 H     3.848690     2.294246     4.034908
 C     5.244682    -0.624244     2.980790
 H     6.176938    -1.190667     3.051615
 C     5.139487     0.611117     3.614515
 H     5.986680     1.008192     4.178871
 C     4.443618     0.081903    -0.688267
 C     4.619682     1.312086    -0.054161
 H     3.758186     1.936034     0.175100
 C     5.549308    -0.706534    -0.998952
 H     5.392089    -1.649572    -1.525881
 C     5.900455     1.709814     0.311433
 H     6.024314     2.664849     0.829261
 C     6.824300    -0.288004    -0.628379
 H     7.683428    -0.920483    -0.868830
 C     7.025072     0.919443     0.046939
 C     8.390280     1.350198     0.497700
 H     8.492710     1.254410     1.591830
 H     8.585666     2.404119     0.246757
 H     9.179751     0.740051     0.036343
 C     0.930069     2.193653    -0.928770
 C     0.276439     3.290414    -0.365163
 H     0.312212     3.428600     0.716049
 C     0.916456     2.017061    -2.313884
 H     1.456168     1.182374    -2.767297
 C    -0.415799     4.180117    -1.179741
 H    -0.928539     5.031300    -0.723146
 C     0.203632     2.910369    -3.113538
 H     0.187565     2.749753    -4.194686
 C    -0.485628     3.997762    -2.567907
 C    -1.286588     4.932520    -3.426408
 H    -1.042683     5.984646    -3.213353
 H    -2.366619     4.806764    -3.244645
 H    -1.105513     4.751806    -4.495064
