 108
scf done:    -2767.253123
 C    -0.775956     0.163400     3.481238
 H    -0.637338     1.005101     4.179843
 H    -1.839395     0.220101     3.196424
 C    -0.518420    -1.149566     4.211213
 H     0.509746    -1.203844     4.602776
 H    -1.201552    -1.297740     5.069042
 H    -0.643418    -2.028009     3.553822
Rh     0.529116     0.338731     1.801997
 C    -2.456801    -1.439302     1.075844
 C    -2.494465     1.557348     0.935358
 C    -1.360568    -0.081582    -1.323398
 C     2.086779     1.512321    -1.255132
 C     3.858330     0.428698     0.780062
 C     2.215998    -1.253566    -0.937675
 P     2.118146     0.263763     0.119288
 P    -1.448586     0.048333     0.549013
 C     1.700732     1.003560     3.058561
 O     2.366458     1.490297     3.861446
 H    -2.016436    -1.736016     2.036864
 H    -2.211569    -2.230580     0.355487
 C    -3.943736    -1.299393     1.213687
 C    -4.810734    -1.670093     0.178994
 H    -4.402707    -2.080238    -0.745351
 C    -4.500436    -0.804420     2.401794
 H    -3.841756    -0.543419     3.235331
 C    -6.188671    -1.519134     0.314684
 H    -6.842768    -1.809906    -0.510836
 C    -5.878725    -0.650444     2.538897
 H    -6.289573    -0.259125     3.472659
 C    -6.729425    -0.999906     1.490380
 H    -7.810133    -0.877901     1.594612
 H    -3.107043     1.259142     1.796834
 H    -1.763917     2.285753     1.312310
 C    -3.365044     2.152343    -0.127793
 C    -4.721299     1.812059    -0.192906
 H    -5.128865     1.110478     0.536416
 C    -2.840814     3.080942    -1.052907
 C    -1.421524     3.560187    -0.957211
 H    -0.699962     2.744385    -0.810357
 H    -1.286986     4.233912    -0.094682
 H    -1.120904     4.116010    -1.855801
 C    -5.552732     2.343610    -1.173845
 H    -6.606013     2.055730    -1.205354
 C    -3.687989     3.595205    -2.041747
 H    -3.281709     4.306811    -2.765826
 C    -5.031060     3.230677    -2.112800
 H    -5.668952     3.648418    -2.895381
 H    -1.325628     0.956751    -1.682057
 H    -0.368418    -0.511743    -1.505018
 C    -2.401152    -0.846168    -2.089730
 C    -3.516278    -0.174894    -2.603940
 H    -3.604939     0.900291    -2.449742
 C    -2.257870    -2.229471    -2.339495
 C    -1.025524    -2.987798    -1.938776
 H    -0.728160    -2.834517    -0.891800
 H    -0.161296    -2.681041    -2.551608
 H    -1.157499    -4.067912    -2.086699
 C    -4.511635    -0.848900    -3.303702
 H    -5.374447    -0.296122    -3.682030
 C    -3.273841    -2.893587    -3.038099
 H    -3.168945    -3.966312    -3.222029
 C    -4.399149    -2.221471    -3.509596
 H    -5.176090    -2.768486    -4.048998
 H     1.090747     1.395976    -1.716056
 H     2.822489     1.223676    -2.022872
 C     2.303838     2.944017    -0.843394
 C     3.045675     3.798117    -1.670162
 H     3.470916     3.407625    -2.599387
 C     1.764500     3.467792     0.338855
 H     1.182630     2.810574     0.996764
 C     3.243962     5.134697    -1.329305
 H     3.825605     5.781959    -1.990251
 C     1.965774     4.802783     0.683161
 H     1.541149     5.186760     1.614067
 C     2.705556     5.642236    -0.148047
 H     2.864649     6.688165     0.124648
 H     3.916629     1.476173     1.117626
 H     3.883757    -0.192839     1.685139
 C     4.969972     0.098093    -0.166457
 C     5.400162     1.060263    -1.089261
 H     4.962460     2.060592    -1.047918
 C     5.577747    -1.177401    -0.171501
 C     5.229841    -2.220910     0.851072
 H     4.161918    -2.482969     0.842999
 H     5.467606    -1.872825     1.869675
 H     5.797483    -3.144779     0.675334
 C     6.376988     0.773617    -2.038955
 H     6.693949     1.543769    -2.746238
 C     6.555365    -1.449057    -1.136151
 H     7.025714    -2.436367    -1.141929
 C     6.949361    -0.495070    -2.071569
 H     7.715015    -0.739049    -2.811835
 H     1.496992    -1.095428    -1.761417
 H     3.204770    -1.234594    -1.424727
 C     1.962519    -2.601219    -0.313553
 C     1.377549    -2.749846     0.947738
 H     1.128758    -1.848256     1.533349
 C     2.296974    -3.756275    -1.054740
 C     2.943745    -3.646153    -2.404300
 H     3.914297    -3.125433    -2.346412
 H     2.321803    -3.073020    -3.111618
 H     3.119148    -4.638549    -2.841384
 C     1.104028    -4.009694     1.476282
 H     0.646819    -4.092339     2.465147
 C     2.015045    -5.012610    -0.510717
 H     2.271050    -5.905855    -1.087416
 C     1.419336    -5.148462     0.741935
 H     1.209444    -6.143081     1.142569
