 106
scf done:    -2989.479710
 C    -1.727264     3.456502     0.973885
 H    -1.483397     4.438763     0.539300
 H    -2.713158     3.198273     0.547674
 C    -1.815054     3.568092     2.489462
 H    -0.861262     3.909417     2.922594
 H    -2.590316     4.287752     2.813900
 H    -2.051902     2.603739     2.969149
Rh    -0.206662     2.022537     0.545277
 C    -3.311961     0.453622     1.289630
 O    -2.683380     0.970962    -1.303571
 O    -1.431220    -0.955237    -0.111144
 C     1.584701    -0.382063    -1.330142
 O     2.873375     1.043812     0.684357
 O     1.222491    -0.889909     1.274381
 P     1.383728     0.454931     0.288422
 P    -1.908813     0.612088     0.122461
 C     0.897006     3.446692     0.047050
 O     1.510580     4.292895    -0.430378
 H    -2.793037     0.172902     2.221987
 H    -3.685660     1.477906     1.433542
 C    -4.396662    -0.527974     0.970763
 C    -4.259968    -1.849041     1.409879
 H    -3.379601    -2.117477     1.998903
 C    -5.527490    -0.156954     0.215034
 C    -5.735575     1.259287    -0.237219
 H    -4.899224     1.607677    -0.860724
 H    -5.810974     1.946542     0.621985
 H    -6.662711     1.354153    -0.818675
 C    -5.204548    -2.817777     1.088475
 H    -5.070596    -3.846927     1.428587
 C    -6.465902    -1.145424    -0.100832
 H    -7.343701    -0.867175    -0.690677
 C    -6.309860    -2.464870     0.319401
 H    -7.058282    -3.214278     0.051029
 C    -1.897358     1.393313    -2.364499
 C    -1.595997     2.746094    -2.488701
 H    -2.000140     3.444669    -1.755276
 C    -1.403750     0.459398    -3.272216
 H    -1.658096    -0.595613    -3.161478
 C    -0.762681     3.194465    -3.518465
 C    -0.385115     4.644019    -3.604027
 H    -1.251125     5.296607    -3.418301
 H     0.374812     4.889120    -2.843669
 H     0.031543     4.896341    -4.589170
 C    -0.584068     0.903925    -4.308012
 H    -0.191038     0.183082    -5.029006
 C    -0.259189     2.253957    -4.425632
 H     0.392056     2.587371    -5.237908
 C    -1.879506    -2.037326    -0.813214
 C    -1.040335    -3.150844    -0.767087
 H    -0.126691    -3.076527    -0.173537
 C    -3.059540    -2.072082    -1.559024
 H    -3.721308    -1.208924    -1.593547
 C    -1.355624    -4.323013    -1.459667
 C    -0.419672    -5.496034    -1.413912
 H    -0.186279    -5.782598    -0.376606
 H    -0.846417    -6.372549    -1.920692
 H     0.536864    -5.255589    -1.906339
 C    -3.377869    -3.242570    -2.241440
 H    -4.306610    -3.280585    -2.815482
 C    -2.542011    -4.357413    -2.199202
 H    -2.812229    -5.264066    -2.746070
 H     0.684989    -1.011738    -1.393862
 H     1.440545     0.427988    -2.060763
 C     2.836957    -1.163882    -1.575168
 C     2.894240    -2.514719    -1.218605
 H     2.003508    -2.988845    -0.801389
 C     3.972968    -0.540500    -2.128824
 C     3.933717     0.893941    -2.569777
 H     3.609797     1.564321    -1.759918
 H     3.227762     1.036445    -3.405331
 H     4.924299     1.228842    -2.905128
 C     4.064017    -3.251509    -1.374972
 H     4.088182    -4.306840    -1.092348
 C     5.144530    -1.291176    -2.264249
 H     6.035834    -0.807444    -2.672047
 C     5.200049    -2.630874    -1.888673
 H     6.131642    -3.190156    -2.002506
 C     4.108038     0.471720     0.869823
 C     4.289426    -0.829210     1.330312
 H     3.420940    -1.453103     1.538138
 C     5.204574     1.296536     0.611712
 H     5.029450     2.319446     0.274479
 C     5.581351    -1.339373     1.502610
 C     5.762624    -2.754519     1.967594
 H     5.198293    -2.946701     2.893215
 H     5.391416    -3.460492     1.207513
 H     6.820008    -2.985378     2.157946
 C     6.487101     0.791766     0.788870
 H     7.350168     1.430270     0.585026
 C     6.678032    -0.519034     1.224008
 H     7.690370    -0.909186     1.355319
 C     0.476080    -0.792707     2.419546
 C     0.542373     0.339368     3.235795
 H     1.238581     1.144154     2.985446
 C    -0.369008    -1.851946     2.745465
 H    -0.413939    -2.723147     2.091890
 C    -0.261922     0.443144     4.376563
 C    -0.165512     1.647759     5.266068
 H     0.499738     1.447399     6.122291
 H     0.238450     2.514638     4.726055
 H    -1.148522     1.925732     5.673385
 C    -1.162807    -1.755531     3.885655
 H    -1.832285    -2.579255     4.145730
 C    -1.124332    -0.615137     4.686651
 H    -1.762683    -0.549171     5.571363
