  94
scf done:    -3229.100679
 C    -1.334872    -2.305375    -2.935663
 H    -1.041584    -3.346254    -3.141647
 H    -2.357467    -2.374492    -2.524536
 C    -1.339041    -1.496319    -4.225851
 H    -2.019147    -1.925820    -4.985131
 H    -1.658728    -0.453403    -4.064598
 H    -0.336678    -1.454380    -4.682247
Rh     0.066090    -1.354859    -1.639115
 C    -3.092376     0.284549    -1.493381
 O    -2.588535    -1.786845     0.179448
 O    -1.389113     0.455110     0.669546
 C     1.711863    -0.361612     1.354671
 O     3.052774    -0.257679    -1.092658
 O     1.252350     1.514190    -0.477711
 P     1.535138    -0.138084    -0.455699
 P    -1.748385    -0.568319    -0.585472
 C     1.267172    -2.743950    -2.024295
 O     1.943241    -3.665121    -2.119787
 H    -2.540019     1.084753    -2.013643
 H    -3.403602    -0.432303    -2.268093
 C    -4.247608     0.855439    -0.726764
 C    -4.157286     2.169436    -0.254470
 H    -3.259794     2.748512    -0.483944
 C    -5.404168     0.096596    -0.458115
 C    -5.570557    -1.295448    -0.995015
 H    -4.761872    -1.958236    -0.654494
 H    -5.554232    -1.302008    -2.097790
 H    -6.529102    -1.727411    -0.676984
 C    -5.170304     2.733185     0.512987
 H    -5.072346     3.755783     0.883683
 C    -6.413407     0.679687     0.316297
 H    -7.312587     0.096171     0.532560
 C    -6.301930     1.977830     0.809023
 H    -7.105428     2.401501     1.416043
 C    -1.851058    -2.800946     0.760231
 C    -1.717663    -4.015295     0.090085
 H    -2.189717    -4.141327    -0.884329
 C    -1.243205    -2.603303     1.998989
 H    -1.363299    -1.650928     2.517864
 C    -0.968674    -5.040158     0.658808
 H    -0.840181    -5.998706     0.153471
 C    -0.488197    -3.625612     2.570010
 H    -0.002897    -3.500121     3.539564
 C    -0.356788    -4.829723     1.889563
 F     0.367857    -5.807066     2.431480
 C    -2.094500     0.937211     1.740353
 C    -3.246517     0.340497     2.257881
 H    -3.662198    -0.549599     1.789846
 C    -1.565468     2.078491     2.345845
 H    -0.652047     2.511502     1.935811
 C    -3.884134     0.914996     3.353274
 H    -4.798752     0.478830     3.757874
 C    -2.199645     2.649877     3.444515
 H    -1.804205     3.544890     3.927846
 C    -3.360757     2.063616     3.932239
 F    -3.980509     2.611419     4.977651
 H     0.735649    -0.013384     1.724820
 H     1.721207    -1.453843     1.486160
 C     2.849980     0.319247     2.049916
 C     2.704642     1.642664     2.477737
 H     1.745557     2.143008     2.325900
 C     4.075443    -0.347644     2.249177
 C     4.254755    -1.782760     1.847503
 H     3.982365    -1.954206     0.795631
 H     3.623672    -2.451399     2.457034
 H     5.298132    -2.099428     1.977218
 C     3.760282     2.326554     3.071961
 H     3.629337     3.361433     3.396599
 C     5.127857     0.356951     2.841156
 H     6.086195    -0.148998     2.984290
 C     4.982439     1.681857     3.244946
 H     5.825107     2.207865     3.699532
 C     4.234223     0.396184    -0.840433
 C     4.307689     1.737885    -0.464610
 H     3.396370     2.317993    -0.332585
 C     5.399537    -0.348436    -1.024952
 H     5.315255    -1.388385    -1.344755
 C     5.550849     2.316829    -0.228825
 H     5.633594     3.357740     0.087650
 C     6.642941     0.231934    -0.794780
 H     7.567258    -0.333383    -0.925869
 C     6.703168     1.558695    -0.388203
 F     7.891533     2.117145    -0.151276
 C     0.504278     2.074842    -1.475172
 C    -0.335187     3.137913    -1.140505
 H    -0.364652     3.485099    -0.107573
 C     0.558815     1.616616    -2.795692
 H     1.239419     0.805976    -3.067814
 C    -1.127786     3.738724    -2.114855
 H    -1.788219     4.574093    -1.875672
 C    -0.245931     2.205136    -3.769687
 H    -0.221819     1.858273    -4.803931
 C    -1.082245     3.257284    -3.418880
 F    -1.847701     3.823745    -4.349950
