  84
scf done:    -1853.343337
 C     1.611687    -1.779711     2.426562
 H     1.120025    -2.207071     3.314447
 H     2.158162    -2.615648     1.969473
 C     2.581460    -0.692756     2.868165
 H     3.305724    -1.060713     3.620461
 H     3.174527    -0.293047     2.028884
 H     2.062538     0.165580     3.327411
Rh     0.241597    -0.801394     1.148512
 C     2.491387     0.216699    -1.518877
 C     3.013741    -2.428380    -0.493967
 C     0.673691    -1.978422    -2.157597
 C    -2.795510    -0.028260    -0.425602
 C    -1.944421     1.732232     1.800544
 C    -0.747701     2.029595    -0.961517
 P    -1.297092     0.778877     0.317494
 P     1.607960    -1.203462    -0.719604
 C    -1.061864    -1.457748     2.257781
 O    -1.905956    -2.009607     2.823438
 H     3.006897    -0.112786    -2.436108
 H     1.715703     0.929743    -1.836226
 C     3.455293     0.919891    -0.573984
 H     2.915016     1.200310     0.346850
 H     4.246206     0.223240    -0.245724
 C     4.101235     2.156169    -1.182490
 H     3.310139     2.848415    -1.523819
 H     4.659728     1.869799    -2.092490
 C     5.030948     2.887226    -0.224304
 H     4.465270     3.165699     0.682399
 H     5.816611     2.191147     0.119050
 C     5.671486     4.125486    -0.829809
 H     6.335356     4.632112    -0.113118
 H     4.908694     4.854222    -1.148608
 H     6.272777     3.871280    -1.717642
 H     3.494590    -2.084608     0.437505
 C     2.488963    -3.841889    -0.255045
 H     3.293824    -4.480805     0.141752
 H     1.656939    -3.857467     0.462886
 H     2.141953    -4.301461    -1.193809
 C     4.057405    -2.428229    -1.604751
 H     4.590624    -1.471363    -1.691943
 H     4.813572    -3.204870    -1.404964
 H     3.613308    -2.658829    -2.587184
 H     1.425617    -2.590750    -2.686215
 C    -0.441526    -2.889631    -1.653098
 H    -0.963238    -3.358253    -2.503874
 H    -0.072009    -3.688260    -0.998831
 H    -1.169673    -2.312355    -1.065200
 C     0.119277    -0.971870    -3.158642
 H     0.894538    -0.333802    -3.604935
 H    -0.380671    -1.507522    -3.981576
 H    -0.636881    -0.319969    -2.696471
 H    -2.511708    -0.253303    -1.468317
 H    -2.842561    -1.009478     0.073554
 C    -4.177267     0.611159    -0.382196
 H    -4.474414     0.778831     0.666451
 H    -4.169643     1.602849    -0.861425
 C    -5.229362    -0.258771    -1.058558
 H    -5.233341    -1.258230    -0.587170
 H    -4.940400    -0.428182    -2.112255
 C    -6.631695     0.331458    -1.007898
 H    -6.914437     0.498982     0.046501
 H    -6.620280     1.332203    -1.475521
 C    -7.677715    -0.538495    -1.685946
 H    -8.679722    -0.086596    -1.632367
 H    -7.735615    -1.532899    -1.214897
 H    -7.439244    -0.693691    -2.750581
 H    -2.605657     0.973111     2.258870
 C    -0.826370     2.017823     2.802834
 H    -1.255035     2.377240     3.752285
 H    -0.235460     1.111988     3.007524
 H    -0.140589     2.795620     2.435543
 C    -2.762181     2.995108     1.546721
 H    -3.599896     2.843497     0.855726
 H    -3.181721     3.356752     2.499864
 H    -2.135332     3.806655     1.148422
 H    -0.235860     1.369880    -1.680554
 C    -1.816312     2.786485    -1.741201
 H    -1.336826     3.409080    -2.514942
 H    -2.508758     2.106072    -2.257470
 H    -2.409115     3.456456    -1.103992
 C     0.311413     2.958864    -0.378576
 H     1.060827     2.402255     0.204267
 H     0.837590     3.495386    -1.184460
 H    -0.132261     3.717724     0.282377
