  84
scf done:    -2849.735596
 C    -1.246365    -3.028734    -1.403857
 H    -1.342982    -4.078534    -1.084049
 H    -2.279793    -2.640449    -1.434141
 C    -0.622917    -2.960486    -2.790963
 H     0.375946    -3.423797    -2.813680
 H    -1.241672    -3.478051    -3.548500
 H    -0.498412    -1.921375    -3.144168
Rh     0.064067    -1.869609    -0.215825
 C    -2.224429     0.285007    -1.629172
 C    -3.210851    -1.197690     0.779076
 C    -1.585181     1.005234     1.177047
 C     2.325751     0.306052     1.827461
 C     3.414079    -0.846276    -0.551993
 C     1.370908     1.102939    -0.854166
 P     1.789750    -0.366704     0.160412
 P    -1.728636    -0.415580     0.025541
 C     0.881811    -3.460103     0.240753
 O     1.244802    -4.466702     0.672995
 H    -2.084033    -0.579495    -2.296028
 H    -1.408317     0.984376    -1.866780
 C    -3.561264     0.909337    -1.890819
 C    -3.671832     2.277674    -2.172057
 H    -2.767288     2.892469    -2.213882
 C    -4.724449     0.128603    -1.920305
 H    -4.654180    -0.946008    -1.735982
 C    -4.912084     2.858268    -2.431149
 H    -4.974894     3.927011    -2.649700
 C    -5.964536     0.706252    -2.179632
 H    -6.859680     0.079831    -2.192834
 C    -6.065078     2.075292    -2.425653
 H    -7.038458     2.527998    -2.628211
 C    -4.344168    -0.434600     1.097418
 H    -4.372084     0.632318     0.868413
 C    -3.185448    -2.551177     1.132689
 H    -2.285228    -3.132890     0.920039
 C    -5.444182    -1.016885     1.716498
 H    -6.334876    -0.437028     1.964386
 C    -4.277606    -3.145637     1.759613
 H    -4.270488    -4.199679     2.042524
 C    -5.396695    -2.370351     2.034624
 F    -6.445766    -2.930665     2.630628
 C    -1.009966     0.730882     2.425359
 H    -0.663455    -0.285068     2.639254
 C    -2.036636     2.301980     0.915653
 H    -2.506562     2.539770    -0.037812
 C    -0.863583     1.728293     3.384150
 H    -0.415215     1.527488     4.358944
 C    -1.893654     3.313544     1.863720
 H    -2.239382     4.330659     1.669925
 C    -1.302793     3.014396     3.084832
 F    -1.160667     3.976234     3.992086
 H     2.273770    -0.572921     2.487654
 H     1.534797     0.992154     2.160694
 C     3.684904     0.929334     1.874295
 C     3.883458     2.288110     1.600005
 H     3.024785     2.934020     1.406686
 C     4.809041     0.133622     2.133587
 H     4.673564    -0.929364     2.349091
 C     5.167434     2.829156     1.563981
 H     5.299874     3.891991     1.347345
 C     6.091949     0.670624     2.097193
 H     6.953504     0.028446     2.294458
 C     6.277223     2.021557     1.805058
 H     7.283720     2.445090     1.772815
 C     4.273851     0.115287    -1.103985
 H     3.949430     1.153733    -1.189915
 C     3.869095    -2.163626    -0.434856
 H     3.219141    -2.930853    -0.013615
 C     5.552089    -0.226431    -1.528739
 H     6.230169     0.515629    -1.953296
 C     5.150873    -2.519350    -0.847718
 H     5.514731    -3.544520    -0.760308
 C     5.976448    -1.542935    -1.389436
 F     7.201673    -1.874646    -1.787395
 C     1.329024     0.930693    -2.249124
 H     1.660093    -0.015294    -2.686148
 C     0.928231     2.315905    -0.319540
 H     0.918522     2.477833     0.758985
 C     0.857141     1.936361    -3.084693
 H     0.812490     1.807465    -4.167449
 C     0.450409     3.333291    -1.144959
 H     0.091605     4.277385    -0.731577
 C     0.413662     3.127066    -2.515985
 F    -0.075160     4.083196    -3.304157
