 114
scf done:    -2845.823631
 C     0.118174    -0.799833    -3.557302
 H    -0.124931    -0.340863    -4.528853
 H     1.212162    -0.713859    -3.478945
 C    -0.291138    -2.266589    -3.571618
 H    -1.366766    -2.386670    -3.776615
 H     0.250700    -2.848835    -4.341563
 H    -0.101479    -2.767992    -2.606769
Rh    -0.892601     0.124171    -1.942814
 C     1.920808    -1.540102    -0.429053
 C     2.443246     0.988150    -1.931227
 C     1.173560     1.120021     0.757182
 C    -2.548716     2.666242    -0.150800
 C    -4.089957     0.211066    -0.617107
 C    -2.231799     0.367159     1.528992
 P    -2.359537     0.810013    -0.271159
 P     1.186422     0.136636    -0.832340
 C    -2.077426     0.721810    -3.211309
 O    -2.738836     1.225493    -4.012833
 H     1.510172    -1.781814     0.562870
 H     1.423514    -2.212145    -1.141694
 C     3.408776    -1.752065    -0.449082
 C     4.159017    -1.536372     0.714101
 H     3.646719    -1.234506     1.625607
 C     4.073500    -2.214572    -1.608082
 C     3.332034    -2.607333    -2.852553
 H     2.761567    -1.777886    -3.295844
 H     2.599618    -3.404897    -2.648442
 H     4.025146    -2.980327    -3.618409
 C     5.538577    -1.709837     0.738054
 H     6.087225    -1.533737     1.666521
 C     5.466108    -2.366486    -1.571101
 H     5.978086    -2.715650    -2.471966
 C     6.203155    -2.109863    -0.418525
 H     7.287701    -2.243273    -0.421519
 H     2.935312     0.187104    -2.498855
 H     1.821680     1.548379    -2.644022
 C     3.468973     1.887649    -1.313833
 C     3.163828     3.231696    -1.056798
 H     2.176105     3.621354    -1.319431
 C     4.751934     1.422807    -1.008636
 H     5.002748     0.380060    -1.215891
 C     4.113915     4.072911    -0.483821
 H     3.865218     5.117675    -0.282177
 C     5.722292     2.257336    -0.443602
 C     7.099675     1.733226    -0.160562
 H     7.059655     0.699509     0.211721
 H     7.710606     1.722289    -1.078505
 H     7.625278     2.354400     0.578723
 C     5.383635     3.588216    -0.173956
 H     6.126511     4.253771     0.274380
 H     1.326412     2.164009     0.445214
 H     0.131619     1.035835     1.080279
 C     2.070726     0.763662     1.902201
 C     1.680048    -0.229851     2.810747
 H     0.719933    -0.736669     2.688081
 C     3.291245     1.415196     2.102222
 H     3.594786     2.203891     1.412026
 C     2.511240    -0.572233     3.874659
 H     2.195792    -1.348001     4.576577
 C     4.141848     1.073769     3.158079
 C     5.474419     1.747821     3.307463
 H     5.455523     2.767475     2.897363
 H     5.789674     1.797911     4.359888
 H     6.251901     1.194121     2.754986
 C     3.737514     0.067732     4.044024
 H     4.386957    -0.209786     4.879036
 H    -1.621563     2.999899     0.342907
 H    -2.487513     3.023858    -1.187484
 C    -3.762387     3.183980     0.558686
 C    -3.761992     3.292319     1.955518
 H    -2.848138     3.053418     2.505330
 C    -4.926314     3.544893    -0.155173
 C    -4.965127     3.533919    -1.656834
 H    -4.718487     2.551432    -2.084328
 H    -4.240776     4.248888    -2.080360
 H    -5.961042     3.815699    -2.024407
 C    -4.890152     3.710025     2.655632
 H    -4.860649     3.786018     3.745091
 C    -6.052442     3.959907     0.564649
 H    -6.954850     4.237195     0.012883
 C    -6.048080     4.036305     1.955075
 H    -6.944153     4.363489     2.487514
 H    -4.786539     0.733533     0.056881
 H    -4.326698     0.500747    -1.650768
 C    -4.178649    -1.277500    -0.448434
 C    -3.716543    -2.138189    -1.452426
 H    -3.346764    -1.719850    -2.391134
 C    -4.637613    -1.829740     0.749723
 H    -5.007369    -1.163688     1.535619
 C    -3.700672    -3.512819    -1.240467
 H    -3.339250    -4.177535    -2.029123
 C    -4.606655    -3.207654     0.988750
 C    -5.014592    -3.756700     2.323968
 H    -4.184106    -3.658210     3.043062
 H    -5.875713    -3.212927     2.740076
 H    -5.277540    -4.822365     2.262036
 C    -4.132481    -4.044071    -0.025995
 H    -4.101824    -5.124788     0.138204
 H    -1.553840     1.105365     1.989985
 H    -3.216035     0.566535     1.983931
 C    -1.771727    -1.019104     1.908630
 C    -1.820346    -1.381220     3.260897
 H    -2.195338    -0.665660     3.997964
 C    -1.291471    -1.952549     0.987352
 H    -1.267823    -1.691514    -0.076520
 C    -1.391567    -2.640495     3.671030
 H    -1.431079    -2.909713     4.729549
 C    -0.872487    -3.228968     1.378499
 C    -0.380233    -4.217342     0.362361
 H    -0.630091    -3.894102    -0.657235
 H     0.713762    -4.340886     0.422622
 H    -0.829992    -5.208587     0.523168
 C    -0.921028    -3.560607     2.736432
 H    -0.597224    -4.552820     3.062747
