 100
scf done:    -2910.912921
 C    -1.165660    -3.622774     1.367302
 H    -0.672445    -4.270351     2.108139
 H    -2.156060    -3.408049     1.796662
 C    -1.295001    -4.364971     0.042917
 H    -1.848341    -5.316530     0.153604
 H    -1.831763    -3.778008    -0.722432
 H    -0.309884    -4.610447    -0.385568
Rh    -0.014550    -1.884320     0.939943
 C    -3.605873    -1.530876     0.670455
 O    -2.312118     0.179094     2.149295
 O    -2.116061     0.502462    -0.312236
 C     2.095059     0.963059     1.387791
 O     2.813372    -0.916571    -0.343207
 O     0.867980     0.608736    -1.081277
 P     1.387325    -0.255587     0.220895
 P    -1.957814    -0.723731     0.811728
 C     1.366624    -2.787337     1.821352
 O     2.159760    -3.283817     2.485749
 H    -3.786217    -1.978452     1.659818
 H    -3.490442    -2.361883    -0.040525
 C    -4.714919    -0.608845     0.261036
 C    -5.203283    -0.631581    -1.050128
 H    -4.775542    -1.332049    -1.772050
 C    -5.263980     0.307303     1.167776
 H    -4.882531     0.340720     2.190214
 C    -6.216456     0.238093    -1.448100
 H    -6.580927     0.206772    -2.477493
 C    -6.276773     1.176566     0.770401
 H    -6.695763     1.883639     1.490537
 C    -6.756696     1.145705    -0.539215
 H    -7.551278     1.828303    -0.849725
 C    -1.451675     1.110272     2.682112
 C    -1.447339     2.400869     2.157786
 H    -2.110343     2.620567     1.319817
 C    -0.662225     0.755721     3.786753
 C    -0.719859    -0.630662     4.344848
 H    -1.745141    -0.889323     4.652372
 H    -0.422771    -1.365463     3.575863
 H    -0.055859    -0.736590     5.212944
 C    -0.614801     3.369638     2.715244
 H    -0.603381     4.380347     2.300801
 C     0.158883     1.750091     4.328789
 H     0.788168     1.498360     5.186543
 C     0.194888     3.040632     3.800848
 H     0.854938     3.790524     4.242037
 C    -2.169933     0.280861    -1.659726
 C    -1.688675    -0.889771    -2.245864
 H    -1.226630    -1.659772    -1.621036
 C    -2.761462     1.293136    -2.432505
 C    -3.330823     2.508088    -1.770165
 H    -4.002546     2.221789    -0.946438
 H    -2.536437     3.140336    -1.343578
 H    -3.896809     3.116516    -2.488222
 C    -1.775539    -1.061765    -3.626003
 H    -1.393102    -1.979704    -4.078916
 C    -2.829650     1.094628    -3.812742
 H    -3.290514     1.872175    -4.427994
 C    -2.342738    -0.065538    -4.415222
 H    -2.413751    -0.191349    -5.497656
 H     2.401334     0.329474     2.237218
 H     1.226959     1.537614     1.744771
 C     3.204656     1.877852     0.953493
 C     2.988699     3.259524     0.897363
 H     2.006089     3.655940     1.159985
 C     4.475520     1.385084     0.631061
 H     4.662865     0.312440     0.687671
 C     4.000730     4.124445     0.492430
 H     3.804480     5.197835     0.440490
 C     5.489409     2.250465     0.226668
 H     6.473206     1.848078    -0.027555
 C     5.254145     3.622158     0.146852
 H     6.048855     4.298833    -0.176208
 C     2.803362    -2.107489    -1.023246
 C     1.820406    -2.394888    -1.971403
 H     1.064245    -1.644177    -2.207032
 C     3.822550    -3.023126    -0.722758
 C     4.872353    -2.680624     0.288686
 H     5.470683    -1.815025    -0.037599
 H     4.421151    -2.414646     1.256625
 H     5.554670    -3.526001     0.449095
 C     1.827331    -3.628476    -2.619258
 H     1.053676    -3.853894    -3.356916
 C     3.806547    -4.249122    -1.393567
 H     4.588162    -4.979138    -1.166428
 C     2.819207    -4.560865    -2.327596
 H     2.830174    -5.530561    -2.829818
 C     1.134892     1.904088    -1.455367
 C     0.271769     2.897539    -1.003748
 H    -0.545617     2.602845    -0.346936
 C     2.196467     2.186465    -2.326581
 C     3.100632     1.105288    -2.828061
 H     3.753207     0.736194    -2.022481
 H     2.525992     0.241663    -3.194084
 H     3.735848     1.475474    -3.643825
 C     0.473013     4.220048    -1.386506
 H    -0.202522     5.000568    -1.027601
 C     2.374908     3.523980    -2.693994
 H     3.201784     3.772366    -3.364549
 C     1.535017     4.535163    -2.231144
 H     1.706528     5.568698    -2.540277
