 108
scf done:    -2167.616705
 C     2.109624    -2.524074    -1.666664
 H     2.164622    -2.802420    -2.731277
 H     3.131530    -2.209283    -1.406683
 C     1.714244    -3.753040    -0.857604
 H     2.381380    -4.615655    -1.049593
 H     1.742412    -3.568651     0.229676
 H     0.688912    -4.085582    -1.089686
Rh     0.681078    -0.992943    -1.304568
 C     1.068611    -0.698891     2.242444
 C     3.585588    -0.949779     0.838811
 C     2.101072     1.510427     0.687534
 C    -1.219241     1.860697    -2.031237
 C    -2.686123    -0.600867    -1.515949
 C    -1.690308     0.927752     0.716541
 P    -1.194788     0.344600    -0.976855
 P     1.866890    -0.319824     0.610256
 C     0.203932    -1.251424    -3.059535
 O    -0.030478    -1.340244    -4.185653
 H     1.829476    -0.738437     3.039252
 H     0.425561     0.165912     2.475248
 C     0.227732    -1.969996     2.209675
 H    -0.343659    -1.992924     1.263307
 H     0.885555    -2.854252     2.166373
 C    -0.731530    -2.102182     3.383220
 H    -1.373894    -1.202034     3.427864
 H    -0.167393    -2.109534     4.333695
 C    -1.614152    -3.339782     3.299993
 H    -2.146148    -3.334991     2.332066
 H    -0.975024    -4.239852     3.280229
 C    -2.618518    -3.445067     4.435696
 H    -3.242045    -4.347384     4.344975
 H    -3.294508    -2.574451     4.452098
 H    -2.114340    -3.486337     5.414719
 H     3.921308    -0.737324     1.867555
 H     3.523631    -2.046347     0.745040
 C     4.568653    -0.388103    -0.181727
 H     4.096416    -0.380977    -1.179697
 H     4.787113     0.667612     0.056096
 C     5.874126    -1.167592    -0.245615
 H     5.651838    -2.217098    -0.510911
 H     6.334191    -1.201804     0.759173
 C     6.872668    -0.596473    -1.242314
 H     6.401279    -0.559949    -2.240161
 H     7.090119     0.453574    -0.976514
 C     8.170110    -1.384886    -1.316882
 H     8.870079    -0.949160    -2.045896
 H     7.985004    -2.428860    -1.616831
 H     8.679868    -1.409986    -0.340056
 H     2.615219     1.788156    -0.247481
 H     1.091329     1.944021     0.603701
 C     2.825675     2.076248     1.899969
 H     2.299440     1.780642     2.824222
 H     3.835092     1.636615     1.974877
 C     2.947128     3.593976     1.859841
 H     1.937845     4.038883     1.784336
 H     3.473220     3.892447     0.934814
 C     3.669015     4.181058     3.064637
 H     3.141800     3.875529     3.985943
 H     4.675786     3.732433     3.135720
 C     3.785796     5.695980     3.019903
 H     4.311848     6.089846     3.902605
 H     2.792743     6.172400     2.984637
 H     4.339994     6.027547     2.127094
 H    -0.290664     2.402955    -1.782959
 H    -1.059594     1.478884    -3.054724
 C    -2.415003     2.800814    -1.991514
 H    -3.349376     2.235591    -2.152604
 H    -2.501526     3.252838    -0.988826
 C    -2.323635     3.914988    -3.026421
 H    -2.246326     3.469577    -4.034778
 H    -1.382957     4.475723    -2.876586
 C    -3.500464     4.879913    -2.987077
 H    -4.437174     4.312599    -3.131485
 H    -3.572905     5.320874    -1.976767
 C    -3.408836     5.988150    -4.023508
 H    -4.272589     6.668015    -3.970000
 H    -3.371826     5.577014    -5.045116
 H    -2.499305     6.593801    -3.881312
 H    -3.604722    -0.004152    -1.392878
 H    -2.559535    -0.782034    -2.596389
 C    -2.785866    -1.927411    -0.772844
 H    -1.829694    -2.467049    -0.900229
 H    -2.879917    -1.741229     0.312733
 C    -3.941344    -2.806753    -1.225025
 H    -3.837839    -3.015713    -2.305161
 H    -4.893584    -2.255416    -1.115471
 C    -4.025530    -4.120390    -0.459816
 H    -3.066381    -4.657745    -0.563404
 H    -4.128619    -3.903302     0.618779
 C    -5.167479    -5.015416    -0.912515
 H    -5.200502    -5.954408    -0.339416
 H    -5.068568    -5.279528    -1.977662
 H    -6.141500    -4.515042    -0.788038
 H    -1.333412     0.147308     1.404014
 H    -1.073371     1.817707     0.931911
 C    -3.154439     1.211429     1.028128
 H    -3.561184     1.976880     0.349154
 H    -3.752878     0.302558     0.850163
 C    -3.358677     1.655005     2.471048
 H    -2.771942     2.572711     2.660349
 H    -2.938713     0.888730     3.148903
 C    -4.816239     1.902504     2.833131
 H    -5.232303     2.668095     2.154438
 H    -5.396982     0.983809     2.636591
 C    -5.014601     2.334249     4.276983
 H    -6.076822     2.504303     4.508788
 H    -4.473343     3.269609     4.492484
 H    -4.639700     1.570054     4.976887
