  90
scf done:    -2380.227029
 C    -1.669277    -3.119322     0.390218
 H    -1.402881    -3.825623     1.194494
 H    -2.564361    -2.597981     0.770491
 C    -2.018977    -3.895544    -0.874068
 H    -1.184238    -4.533867    -1.204670
 H    -2.895904    -4.556432    -0.736035
 H    -2.250513    -3.233861    -1.726415
Rh    -0.023164    -1.774719     0.097588
 C    -3.035266    -0.384313    -1.020656
 O    -2.454460     0.081956     1.534789
 O    -1.033110     1.370441    -0.176899
 C     1.944562     1.003132     0.919706
 O     3.179260    -1.212881    -0.131885
 O     1.928074     0.362428    -1.681898
 P     1.749749    -0.420075    -0.239434
 P    -1.621881    -0.135150     0.139848
 C     1.053293    -3.304332     0.172225
 O     1.691848    -4.252784     0.227955
 H    -2.583890    -0.214917    -2.011717
 H    -3.225182    -1.465497    -0.956064
 C    -4.306864     0.401000    -0.868383
 C    -4.518771     1.529560    -1.668968
 H    -3.759878     1.803199    -2.405789
 C    -5.317106     0.003928     0.034186
 C    -5.207347    -1.257499     0.838249
 H    -4.330055    -1.231023     1.498460
 H    -5.095720    -2.138951     0.185657
 H    -6.105258    -1.410491     1.452137
 C    -5.668271     2.305376    -1.554503
 H    -5.802448     3.182655    -2.191598
 C    -6.465118     0.797356     0.140196
 H    -7.246018     0.494525     0.843183
 C    -6.643875     1.943466    -0.630029
 H    -7.553210     2.539284    -0.521386
 C    -1.774023     0.174482     2.798032
 H    -0.853907     0.770011     2.648239
 C    -1.390468    -1.196306     3.314099
 H    -0.717784    -1.701995     2.599771
 H    -2.284469    -1.823224     3.452472
 H    -0.872805    -1.104289     4.280776
 C    -2.710875     0.921712     3.722634
 H    -2.986023     1.898554     3.299732
 H    -3.635823     0.344083     3.871223
 H    -2.239369     1.081005     4.703443
 C    -1.733694     2.621381    -0.101150
 H    -2.807945     2.423915     0.039629
 C    -1.504828     3.346845    -1.411774
 H    -1.827042     2.735568    -2.265838
 H    -0.434331     3.570028    -1.540120
 H    -2.063439     4.294225    -1.434833
 C    -1.212323     3.414668     1.081122
 H    -1.370817     2.876083     2.024443
 H    -0.135252     3.615832     0.972260
 H    -1.734913     4.380516     1.149865
 H     1.089978     1.641999     0.655901
 H     1.739557     0.587266     1.916346
 C     3.241666     1.741520     0.863099
 C     3.452811     2.694055    -0.141550
 H     2.646901     2.894215    -0.850954
 C     4.274392     1.464009     1.781969
 C     4.081661     0.460477     2.883101
 H     3.768885    -0.516948     2.484688
 H     3.304382     0.786194     3.594485
 H     5.010372     0.315762     3.452261
 C     4.669830     3.357434    -0.262619
 H     4.816110     4.091923    -1.058207
 C     5.490188     2.143123     1.648371
 H     6.294811     1.928732     2.357425
 C     5.697209     3.076859     0.635681
 H     6.659176     3.588279     0.552890
 C     4.392673    -0.902358    -0.837724
 H     4.453348     0.187594    -0.987953
 C     4.386887    -1.602198    -2.183322
 H     3.560055    -1.237241    -2.804286
 H     4.273430    -2.688680    -2.045858
 H     5.330892    -1.414145    -2.716958
 C     5.543277    -1.360858     0.033028
 H     5.560812    -0.818270     0.986094
 H     5.453953    -2.438070     0.241206
 H     6.499859    -1.181371    -0.479611
 C     0.909323     0.399547    -2.687867
 H    -0.024629     0.737033    -2.209813
 C     0.678449    -0.963905    -3.310154
 H     0.386154    -1.691761    -2.532403
 H     1.583010    -1.330241    -3.819020
 H    -0.134248    -0.909009    -4.050772
 C     1.349471     1.445948    -3.689264
 H     1.489743     2.419579    -3.197546
 H     2.304356     1.156427    -4.154235
 H     0.596363     1.561364    -4.482957
