  92
scf done:    -2606.285883
 C    -1.357844    -3.630130     0.191947
 H    -1.125478    -4.462127    -0.493790
 H    -0.763624    -3.821743     1.103057
 C    -2.837854    -3.627593     0.552943
 H    -3.478559    -3.611684    -0.342880
 H    -3.124333    -4.517605     1.144679
 H    -3.116925    -2.741488     1.147549
Rh    -0.876895    -1.746903    -0.660151
 C     2.050598    -3.331552     0.475100
 O     2.122746    -0.694418    -0.120417
 O     1.066125    -1.539221     2.126003
 C     0.515274     0.907629    -2.669704
 O    -1.948146     1.193106    -1.755369
 O    -0.050456     1.297223    -0.001306
 P    -0.561458     0.393724    -1.293443
 P     1.043743    -1.817448     0.479693
 C    -1.897870    -2.238545    -2.159087
 O    -2.362393    -2.583965    -3.150711
 H     2.954288    -3.155951     1.081103
 H     1.449270    -4.090909     1.000148
 C     2.391145    -3.785639    -0.939064
 H     3.004230    -3.012251    -1.431471
 H     1.457521    -3.852372    -1.523209
 C     3.125249    -5.116245    -0.961975
 H     4.073578    -5.060598    -0.403890
 H     2.517500    -5.913796    -0.505792
 H     3.361019    -5.424359    -1.991696
 C     3.451626    -0.552474     0.162072
 C     4.306869    -0.296637    -0.912216
 H     3.891052    -0.270770    -1.921671
 C     3.961370    -0.584760     1.461654
 H     3.290274    -0.774662     2.299651
 C     5.661025    -0.077227    -0.685022
 H     6.317374     0.126244    -1.535835
 C     5.323264    -0.371151     1.667238
 H     5.711684    -0.397594     2.689178
 C     6.199223    -0.114615     0.607714
 C     7.668242     0.088900     0.840641
 H     7.872577     0.402330     1.874361
 H     8.082191     0.852106     0.164992
 H     8.231468    -0.842502     0.662365
 C     0.095821    -0.721601     2.665363
 C    -1.144524    -1.253805     3.008032
 H    -1.330782    -2.317563     2.854574
 C     0.357141     0.631228     2.862118
 H     1.328385     1.039038     2.577363
 C    -2.127313    -0.419776     3.535086
 H    -3.097205    -0.846903     3.804837
 C    -0.638164     1.454570     3.379161
 H    -0.432318     2.520749     3.506491
 C    -1.901012     0.950010     3.713803
 C    -2.992798     1.857047     4.201966
 H    -3.691283     1.328441     4.867048
 H    -3.580422     2.249679     3.354505
 H    -2.588095     2.721658     4.747582
 H     1.535321     0.811634    -2.260183
 H     0.412833     0.094362    -3.408921
 C     0.290334     2.264770    -3.327355
 H     0.370006     3.065754    -2.577482
 H    -0.740999     2.308221    -3.709378
 C     1.284309     2.516411    -4.450228
 H     2.319641     2.517114    -4.072662
 H     1.216589     1.741688    -5.231068
 H     1.105348     3.490551    -4.929982
 C    -3.141000     0.896011    -1.147436
 C    -3.228985     0.610638     0.216953
 H    -2.339299     0.634027     0.850178
 C    -4.288119     0.886043    -1.938568
 H    -4.195893     1.108822    -3.003118
 C    -4.469872     0.299751     0.769182
 H    -4.524342     0.070285     1.836621
 C    -5.518924     0.583185    -1.365241
 H    -6.412245     0.576038    -1.996019
 C    -5.634726     0.275664    -0.003556
 C    -6.958617    -0.099926     0.596671
 H    -6.986994     0.113092     1.675132
 H    -7.158533    -1.177338     0.470480
 H    -7.788144     0.442914     0.119953
 C     0.349713     2.603013    -0.014908
 C    -0.591337     3.631966     0.009698
 H    -1.654064     3.383706     0.010524
 C     1.713112     2.894101    -0.007917
 H     2.432062     2.072646    -0.015616
 C    -0.156318     4.953867     0.016299
 H    -0.897649     5.757889     0.025562
 C     2.129226     4.223034    -0.000077
 H     3.199945     4.445306    -0.002249
 C     1.207206     5.276355     0.008781
 C     1.662415     6.706717     0.045225
 H     0.982290     7.360962    -0.519865
 H     2.671905     6.819284    -0.375635
 H     1.694495     7.086978     1.080153
