  72
scf done:    -1696.230954
 C    -1.790344    -2.251573    -1.906331
 H    -1.352126    -2.824163    -2.739598
 H    -2.184613    -3.015095    -1.219922
 C    -2.926955    -1.390775    -2.442995
 H    -3.677611    -1.985740    -2.998409
 H    -3.470473    -0.865165    -1.640520
 H    -2.562497    -0.612589    -3.133612
Rh    -0.371054    -0.978412    -0.962094
 C    -2.435500     0.315194     1.654880
 C    -2.785043    -2.513488     1.254408
 C    -0.382589    -1.537143     2.506767
 C     2.759160    -0.038735     0.357809
 C     1.636002     1.704007    -1.702737
 C     0.665883     1.902650     0.998978
 P     1.149822     0.639262    -0.271697
 P    -1.511422    -1.185338     1.083888
 C     0.655897    -1.345944    -2.441275
 O     1.333057    -1.656374    -3.321568
 H    -3.150541     0.040484     2.448399
 H    -1.691254     0.980692     2.120773
 C    -3.132398     1.048598     0.516888
 H    -2.417352     1.170779    -0.317374
 H    -3.946248     0.423153     0.111782
 C    -3.690448     2.404913     0.921106
 H    -2.871532     3.027387     1.328366
 H    -4.408705     2.279502     1.752106
 C    -4.363177     3.146633    -0.225486
 H    -3.639633     3.261023    -1.052062
 H    -5.178052     2.521403    -0.630856
 C    -4.909579     4.508218     0.171606
 H    -5.387287     5.018418    -0.678414
 H    -4.109163     5.166398     0.546866
 H    -5.662306     4.419469     0.971592
 H    -3.467190    -2.389416     0.398237
 C    -2.195134    -3.916407     1.270557
 H    -1.657419    -4.120039     2.209027
 H    -1.484612    -4.059149     0.442151
 H    -3.379050    -2.323162     2.163354
 H    -2.985230    -4.676196     1.172415
 H     0.385453    -0.747953     2.481423
 C    -1.013767    -1.636894     3.886349
 H    -1.763566    -2.440721     3.938220
 H    -1.511883    -0.699576     4.177183
 H     0.149848    -2.463821     2.238767
 H    -0.250851    -1.853288     4.650377
 H     2.615582    -0.193781     1.442051
 H     2.827491    -1.050479    -0.073535
 C     4.052161     0.722217     0.090295
 H     4.211960     0.803089    -0.997963
 H     3.981345     1.758163     0.459989
 C     5.265620     0.050198     0.719535
 H     5.334391    -0.991227     0.356235
 H     5.115743    -0.025478     1.812370
 C     6.576112     0.772333     0.438555
 H     6.720912     0.844618    -0.653918
 H     6.499286     1.814110     0.797889
 C     7.783952     0.100502     1.071414
 H     8.714625     0.644595     0.850239
 H     7.905873    -0.930586     0.702487
 H     7.682738     0.046452     2.167439
 H     2.131189     1.032536    -2.422817
 C     0.430432     2.369937    -2.349583
 H    -0.055676     3.086408    -1.668233
 H    -0.321227     1.615174    -2.631304
 H     2.386787     2.448329    -1.394031
 H     0.722038     2.923375    -3.255158
 H     0.441576     1.331025     1.913559
 C     1.619925     3.042426     1.318406
 H     1.881827     3.626598     0.423550
 H     2.555822     2.679199     1.767384
 H    -0.304756     2.296035     0.653873
 H     1.162099     3.738691     2.038639
