 102
scf done:    -2537.344775
 C    -0.105466    -1.015919    -3.435500
 H     0.530127    -1.805217    -3.866880
 H    -1.123084    -1.438568    -3.398847
 C    -0.087347     0.222932    -4.319855
 H     0.930101     0.630580    -4.435099
 H    -0.468195     0.013744    -5.337744
 H    -0.713089     1.035154    -3.910770
Rh     0.588309    -0.293820    -1.561155
 C    -2.808985     0.511534    -1.364993
 O    -2.203547    -2.089937    -1.159966
 O    -1.563222    -0.629746     0.854217
 C     1.435441     0.346329     1.916563
 O     2.412720     1.993506     0.148675
 O    -0.130423     2.068049     0.479658
 P     1.107600     0.999613     0.226179
 P    -1.500685    -0.650004    -0.782095
 C     2.281042    -0.923344    -2.053542
 O     3.241411    -1.513917    -2.278742
 H    -2.263451     1.465242    -1.429268
 H    -3.030132     0.194893    -2.395819
 C    -4.032884     0.684690    -0.519037
 C    -4.004827     1.647579     0.496434
 H    -3.104995     2.255165     0.615002
 C    -5.181521    -0.115097    -0.687689
 C    -5.262559    -1.140029    -1.780560
 H    -4.428249    -1.853623    -1.716521
 H    -5.206116    -0.666034    -2.774947
 H    -6.208863    -1.695823    -1.731096
 C    -5.080104     1.815453     1.363544
 H    -5.034145     2.568870     2.153552
 C    -6.253063     0.067444     0.193453
 H    -7.145451    -0.552607     0.070806
 C    -6.209378     1.013496     1.215753
 H    -7.061764     1.128286     1.889576
 C    -1.405766    -3.256540    -1.340534
 H    -1.890622    -3.839781    -2.139240
 H    -0.405197    -2.954470    -1.698819
 C    -1.282080    -4.076287    -0.074278
 H    -0.843512    -3.443765     0.714977
 H    -2.287186    -4.369890     0.275532
 C    -0.415219    -5.312153    -0.269165
 H     0.571919    -5.001241    -0.653985
 H    -0.855845    -5.949938    -1.055623
 C    -0.234459    -6.119110     1.006134
 H     0.245796    -5.514925     1.792548
 H    -1.202836    -6.464832     1.401979
 H     0.393221    -7.007234     0.838851
 C    -2.569876    -1.202842     1.686888
 H    -3.544057    -0.731380     1.490346
 H    -2.662750    -2.275839     1.462381
 C    -2.146102    -0.983370     3.121868
 H    -2.868545    -1.497281     3.779266
 H    -1.174052    -1.483696     3.283105
 C    -2.040438     0.488125     3.499645
 H    -3.045592     0.941019     3.453598
 H    -1.446674     1.000656     2.725863
 C    -1.422539     0.715344     4.868459
 H    -2.002958     0.218951     5.663006
 H    -0.396804     0.313834     4.913243
 H    -1.369979     1.786399     5.117520
 H     1.371811     1.187206     2.623361
 H     0.594486    -0.331586     2.116718
 C     2.773299    -0.326155     2.010265
 C     3.883605     0.419099     2.423020
 H     3.741337     1.467264     2.696861
 C     2.945280    -1.675223     1.639568
 C     1.777559    -2.521297     1.228513
 H     1.238836    -2.074738     0.373409
 H     1.051299    -2.624264     2.052299
 H     2.102893    -3.529744     0.938426
 C     5.155963    -0.141322     2.468066
 H     6.008097     0.460156     2.792916
 C     4.234257    -2.219439     1.676398
 H     4.372262    -3.262436     1.379041
 C     5.333777    -1.467827     2.081974
 H     6.328248    -1.919944     2.098777
 C     2.914468     2.508293    -1.076404
 H     2.552962     1.884881    -1.915597
 H     2.515232     3.527252    -1.220008
 C     4.426452     2.527587    -1.021970
 H     4.796881     3.115928    -1.879910
 H     4.727428     3.080774    -0.114575
 C     5.057555     1.142309    -1.019821
 H     4.850205     0.646890    -1.982518
 H     4.567464     0.526727    -0.249233
 C     6.554485     1.166526    -0.765521
 H     7.088357     1.758837    -1.526947
 H     6.782223     1.609695     0.217639
 H     6.976867     0.150515    -0.774100
 C    -0.002890     3.219674     1.301418
 H    -0.800459     3.167278     2.063091
 H     0.967055     3.219494     1.824585
 C    -0.135949     4.483530     0.476481
 H    -0.012778     5.347476     1.153439
 H     0.705932     4.527720    -0.235746
 C    -1.452381     4.596239    -0.277522
 H    -2.288219     4.568093     0.444127
 H    -1.570904     3.703793    -0.913567
 C    -1.550594     5.851465    -1.128069
 H    -1.460418     6.762061    -0.513928
 H    -0.748561     5.883973    -1.882962
 H    -2.511254     5.904019    -1.661998
