  48
scf done:    -1381.984452
 C    -2.894576    -1.149471     0.359424
 H    -3.197193    -2.192224     0.546432
 H    -3.257834    -0.592021     1.237488
 C    -3.578019    -0.657842    -0.911380
 H    -4.682336    -0.695970    -0.838607
 H    -3.311215     0.382996    -1.164735
 H    -3.293500    -1.266781    -1.784351
Rh    -0.793840    -0.932607     0.132184
 C    -0.327728     2.622770    -0.079962
 C    -2.654898     1.930029     1.392958
 C    -0.129906     1.513720     2.562962
 C     2.661933     0.113899     0.613560
 C     2.273377    -2.375979    -0.748724
 C     1.702094     0.045966    -2.103055
 P     1.438683    -0.762556    -0.469648
 P    -0.999408     1.257004     0.967116
 C    -0.824493    -2.759124    -0.082834
 O    -0.859674    -3.908438    -0.146319
 H    -0.435243     3.584245     0.452908
 H     0.755333     2.441002    -0.186558
 C    -0.984680     2.682069    -1.454211
 H    -2.057346     2.911492    -1.338508
 H    -0.946207     1.678157    -1.912167
 C    -0.343528     3.705882    -2.377532
 H    -0.393358     4.719983    -1.949810
 H     0.720323     3.476247    -2.552889
 H    -0.842881     3.731788    -3.357744
 H    -3.340097     1.841043     0.539413
 H    -3.080238     1.353152     2.225632
 H    -2.572793     2.986419     1.691036
 H    -0.244359     2.548415     2.922222
 H    -0.555661     0.821376     3.303186
 H     0.936401     1.278613     2.456125
 H     2.291994     1.148931     0.709659
 H     2.544694    -0.338091     1.613845
 C     4.129590     0.129245     0.206625
 H     4.232451     0.542502    -0.810879
 H     4.513133    -0.902792     0.155448
 C     4.989128     0.937543     1.168049
 H     4.658570     1.987743     1.213453
 H     4.933363     0.530860     2.190437
 H     6.047204     0.934094     0.865062
 H     2.307948    -2.934729     0.198067
 H     1.673903    -2.961311    -1.460149
 H     3.292715    -2.263486    -1.146280
 H     1.042648    -0.440995    -2.835721
 H     1.417285     1.105908    -2.046805
 H     2.743578    -0.030707    -2.450279
