  76
scf done:    -3986.227978
 C     1.120957    -3.203110     0.915942
 H     1.210940    -4.140191     0.352202
 H     2.110596    -2.926983     1.302856
 C     0.048091    -3.243718     1.983425
 H    -0.599589    -4.129467     1.920418
 H     0.445445    -3.165361     3.008377
 H    -0.655242    -2.358676     1.893813
Rh     0.073497    -1.674418    -0.030121
 C     1.640434     0.922387     2.037472
 C     3.419744    -0.689425     0.423065
 C     1.717549     1.173377    -0.826036
 C    -1.618977     0.758723    -2.055274
 C    -3.314129    -0.875922    -0.363174
 C    -1.740836     1.153379     0.833105
 P    -1.628298    -0.147296    -0.453398
 P     1.673786    -0.100091     0.503659
 C    -0.114466    -2.625051    -1.602514
 O    -0.072933    -3.078247    -2.666460
 H     2.480772     1.636393     2.059562
 H     0.719658     1.523384     1.977152
 C     1.605804     0.071972     3.300468
 H     2.478400    -0.603573     3.323264
 H     0.720712    -0.584116     3.254532
 C     1.570190     0.913255     4.566622
 H     2.478576     1.529437     4.662159
 H     0.709178     1.600347     4.566851
 H     1.500529     0.283807     5.466639
 C     3.717326    -1.755044    -0.435481
 H     2.897884    -2.250770    -0.963624
 C     4.468188    -0.087494     1.127463
 H     4.277366     0.747005     1.804926
 C     5.024100    -2.200466    -0.604086
 H     5.250809    -3.029717    -1.276028
 C     5.779518    -0.532146     0.981731
 H     6.594427    -0.064174     1.536335
 C     6.051008    -1.585576     0.110555
Cl     7.679739    -2.140270    -0.078911
 C     1.568306     2.543722    -0.593829
 H     1.493137     2.929928     0.423211
 C     1.829673     0.728498    -2.152067
 H     1.927870    -0.341084    -2.352889
 C     1.480935     3.445935    -1.654716
 H     1.340733     4.512685    -1.471315
 C     1.767390     1.617043    -3.217589
 H     1.840594     1.263421    -4.247137
 C     1.566882     2.974873    -2.961543
Cl     1.400626     4.081151    -4.283683
 H    -0.717124     1.390658    -2.024996
 H    -1.395090    -0.018802    -2.804571
 C    -2.839669     1.566902    -2.470248
 H    -3.110799     2.284333    -1.677553
 H    -3.707492     0.896186    -2.574959
 C    -2.597503     2.312571    -3.775141
 H    -1.741848     3.002395    -3.694505
 H    -2.372124     1.611995    -4.594760
 H    -3.478785     2.900834    -4.072005
 C    -3.493055    -2.233442    -0.649673
 H    -2.620001    -2.847847    -0.883678
 C    -4.436032    -0.103520    -0.030945
 H    -4.318314     0.954429     0.214620
 C    -4.760478    -2.809823    -0.623304
 H    -4.898264    -3.868835    -0.846871
 C    -5.706590    -0.667395     0.005307
 H    -6.579635    -0.067370     0.266843
 C    -5.861393    -2.021244    -0.295596
Cl    -7.439541    -2.728909    -0.249805
 C    -1.477879     2.506334     0.601094
 H    -1.292058     2.868167    -0.410785
 C    -1.972239     0.732572     2.152241
 H    -2.178508    -0.322448     2.354326
 C    -1.416572     3.415753     1.658089
 H    -1.196141     4.468961     1.476159
 C    -1.926006     1.627078     3.212297
 H    -2.100650     1.293590     4.236351
 C    -1.629816     2.968678     2.958856
Cl    -1.508172     4.076793     4.282354
