 100
scf done:    -2910.756737
 C    -1.287032    -3.051550    -1.699720
 H    -1.092415    -4.119042    -1.510282
 H    -2.345584    -2.900953    -1.423659
 C    -1.065832    -2.742551    -3.173550
 H    -0.033129    -2.971589    -3.483693
 H    -1.737401    -3.322723    -3.835309
 H    -1.239508    -1.676669    -3.406533
Rh     0.060475    -1.756457    -0.713524
 C    -3.003600    -0.165938    -1.521166
 C    -2.761847    -1.342158     1.146784
 C    -1.469229     1.138180     0.741929
 C     2.191646    -0.519182     1.724314
 C     3.337855    -0.676510    -1.040233
 C     1.651811     1.475720    -0.397747
 P     1.795914    -0.326350    -0.091881
 P    -1.781397    -0.451347    -0.135153
 C     1.009142    -3.249389    -0.231044
 O     1.497068    -4.178379     0.255385
 H    -2.913077    -1.099450    -2.093244
 H    -2.561700     0.635709    -2.123630
 C    -4.447895     0.089173    -1.226316
 C    -4.994240     1.376684    -1.282227
 H    -4.343795     2.215429    -1.532418
 C    -5.295255    -0.978396    -0.903586
 H    -4.887116    -1.991720    -0.861206
 C    -6.343875     1.593918    -1.017655
 H    -6.751732     2.606697    -1.073705
 C    -6.643837    -0.763427    -0.628156
 H    -7.285099    -1.611062    -0.374128
 C    -7.175292     0.524521    -0.683958
 H    -8.234856     0.693330    -0.476482
 C    -2.457055    -2.674985     1.431414
 H    -1.620758    -3.125847     0.890980
 C    -3.811538    -0.722796     1.865373
 O    -4.052301     0.568041     1.596909
 C    -5.062991     1.252430     2.279109
 H    -6.051987     0.799406     2.098790
 H    -5.065666     2.273413     1.878300
 H    -4.864388     1.290626     3.364466
 C    -3.177053    -3.405067     2.376226
 H    -2.918034    -4.446853     2.574475
 C    -4.532377    -1.452097     2.817368
 H    -5.346021    -0.980544     3.368352
 C    -4.217082    -2.787519     3.062111
 H    -4.793269    -3.342820     3.806745
 C    -1.057431     1.021200     2.073241
 H    -0.981410     0.020855     2.508608
 C    -1.559880     2.428546     0.188989
 O    -1.897546     2.530829    -1.119039
 C    -2.137642     3.797598    -1.664576
 H    -2.955309     4.318863    -1.136170
 H    -2.435382     3.636253    -2.709252
 H    -1.234004     4.428182    -1.645428
 C    -0.778399     2.134683     2.861160
 H    -0.469741     2.006235     3.900990
 C    -1.306500     3.551686     0.983732
 H    -1.384974     4.551797     0.559115
 C    -0.919292     3.405065     2.312564
 H    -0.717312     4.295093     2.913184
 H     1.810985    -1.531178     1.928392
 H     1.502407     0.170445     2.234693
 C     3.587299    -0.397365     2.252419
 C     3.956681     0.644775     3.109962
 H     3.210595     1.389016     3.403297
 C     4.548410    -1.362824     1.925490
 H     4.270676    -2.197467     1.276716
 C     5.255877     0.740582     3.604653
 H     5.521978     1.560793     4.276380
 C     5.849369    -1.266012     2.411779
 H     6.585353    -2.026362     2.139102
 C     6.211101    -0.210910     3.250017
 H     7.230573    -0.138904     3.636692
 C     3.317912    -1.699170    -1.991250
 H     2.391020    -2.266291    -2.110016
 C     4.517816     0.091505    -0.908625
 O     4.491394     1.097325    -0.023756
 C     5.632396     1.876132     0.192058
 H     6.472437     1.266822     0.565473
 H     5.361617     2.610752     0.960405
 H     5.940030     2.409669    -0.724112
 C     4.432667    -1.998794    -2.772808
 H     4.387549    -2.809340    -3.502745
 C     5.642042    -0.211081    -1.685170
 H     6.558566     0.367934    -1.572574
 C     5.595342    -1.254472    -2.607802
 H     6.482988    -1.477674    -3.205324
 C     1.983188     2.469175     0.518988
 H     2.305965     2.185779     1.520061
 C     1.245918     1.857252    -1.692572
 O     0.920564     0.848961    -2.524419
 C     0.459518     1.127977    -3.814843
 H    -0.458982     1.739870    -3.791495
 H     0.232134     0.159510    -4.277448
 H     1.224874     1.645245    -4.419221
 C     1.941801     3.818225     0.170571
 H     2.204755     4.580555     0.906659
 C     1.219597     3.206268    -2.055491
 H     0.927866     3.501939    -3.063563
 C     1.573003     4.180054    -1.120627
 H     1.556395     5.233137    -1.413586
