 122
scf done:    -3447.102002
 C    -1.679890     1.041702     3.300966
 H    -1.607441     2.063092     3.711181
 H    -2.658113     0.991497     2.801327
 C    -1.627366     0.058766     4.459233
 H    -0.666407     0.106073     4.998268
 H    -2.425035     0.249119     5.203161
 H    -1.761248    -0.978877     4.116867
Rh    -0.149529     0.660002     1.874476
 C    -1.352424    -1.433823    -0.691427
 C    -3.490050    -0.189126     0.777168
 C    -1.805265     1.526205    -0.978591
 C     3.233712     0.794771     1.451701
 C     2.235314    -1.593109     0.286600
 C     1.758861     0.977613    -1.123009
 P     1.716187     0.167383     0.535960
 P    -1.761735     0.119202     0.212061
 C     0.710124     1.951172     2.816822
 O     1.129131     2.927393     3.286589
 H    -0.485620    -1.194516    -1.323731
 H    -0.963226    -2.054214     0.125072
 C    -2.378273    -2.205823    -1.467700
 C    -3.527806    -1.616137    -2.004047
 H    -3.705508    -0.551626    -1.845694
 C    -2.157768    -3.584139    -1.681163
 C    -0.941485    -4.264379    -1.120449
 H    -0.939989    -4.244865    -0.018274
 H    -0.007615    -3.767167    -1.425916
 H    -0.891125    -5.315026    -1.439034
 C    -4.448314    -2.358552    -2.739563
 H    -5.340204    -1.871282    -3.141606
 C    -3.089546    -4.316372    -2.425141
 H    -2.912379    -5.383370    -2.589785
 C    -4.230134    -3.717029    -2.953836
 H    -4.945827    -4.311022    -3.527705
 C    -4.636450     0.556612     0.451822
 O    -4.505847     1.482239    -0.516630
 C    -5.524151     2.408439    -0.749995
 H    -5.127329     3.120334    -1.486042
 H    -6.431660     1.933352    -1.163205
 H    -5.795409     2.955447     0.169791
 C    -3.644194    -1.258419     1.681486
 O    -2.529619    -1.978180     1.912202
 C    -2.600565    -3.172530     2.636066
 H    -1.593676    -3.606781     2.597268
 H    -3.321026    -3.874859     2.182582
 H    -2.877096    -2.998522     3.690604
 C    -4.871068    -1.541278     2.288001
 H    -4.968183    -2.365671     2.993059
 C    -5.866764     0.296934     1.071078
 H    -6.747000     0.887854     0.820867
 C    -5.968674    -0.744195     1.985112
 H    -6.930350    -0.948813     2.461531
 C    -1.595096     1.458076    -2.366285
 O    -1.454878     0.236486    -2.921231
 C    -1.693372     0.068615    -4.288345
 H    -1.769658    -1.013876    -4.457718
 H    -2.642657     0.541100    -4.593652
 H    -0.874823     0.479518    -4.904698
 C    -2.004198     2.805764    -0.415036
 O    -2.334202     2.816269     0.882489
 C    -2.323192     4.014471     1.603089
 H    -2.528401     3.746163     2.645675
 H    -3.101521     4.713154     1.247709
 H    -1.338145     4.507618     1.550330
 C    -1.923136     3.970727    -1.183969
 H    -2.073082     4.948268    -0.726780
 C    -1.541174     2.620767    -3.149366
 H    -1.354701     2.549748    -4.219692
 C    -1.690642     3.862634    -2.551912
 H    -1.630705     4.766192    -3.163521
 H     3.001349     1.850884     1.629925
 H     3.126781     0.284848     2.418882
 C     4.619989     0.662146     0.908274
 C     5.074853     1.597595    -0.029668
 H     4.391413     2.384075    -0.355581
 C     5.500512    -0.346383     1.354016
 C     5.093942    -1.350336     2.396295
 H     4.222157    -1.943216     2.082206
 H     4.826566    -0.858311     3.346083
 H     5.915864    -2.048811     2.605667
 C     6.366270     1.544448    -0.543567
 H     6.695131     2.289213    -1.272726
 C     6.798109    -0.383970     0.828153
 H     7.484426    -1.160061     1.179437
 C     7.236230     0.544966    -0.112694
 H     8.256964     0.492398    -0.499620
 C     3.297689    -1.984019    -0.568236
 O     3.866462    -1.018611    -1.299884
 C     4.955962    -1.308939    -2.126964
 H     5.244546    -0.359985    -2.594208
 H     5.811406    -1.691403    -1.546295
 H     4.689157    -2.038235    -2.912611
 C     1.644561    -2.590889     1.074367
 O     0.621732    -2.286376     1.921162
 C     0.979108    -2.216592     3.285956
 H     0.068725    -1.976977     3.845182
 H     1.709616    -1.409538     3.459547
 H     1.399114    -3.174967     3.639994
 C     2.063608    -3.926587     1.011518
 H     1.557495    -4.666915     1.633290
 C     3.717867    -3.315497    -0.632379
 H     4.535671    -3.602741    -1.292004
 C     3.096157    -4.279785     0.159238
 H     3.428323    -5.319075     0.102158
 C     1.625515     0.324237    -2.363059
 O     1.384214    -1.000500    -2.331516
 C     1.455565    -1.759390    -3.501638
 H     1.349263    -2.808740    -3.197006
 H     0.645191    -1.510980    -4.206317
 H     2.426181    -1.630020    -4.010890
 C     1.818790     2.386434    -1.142399
 O     1.853565     2.986544     0.062414
 C     1.663735     4.371139     0.169859
 H     1.576976     4.579038     1.243837
 H     0.738253     4.683123    -0.342270
 H     2.519117     4.934673    -0.242301
 C     1.869354     3.105687    -2.340805
 H     1.930636     4.192794    -2.331996
 C     1.707057     1.031754    -3.567954
 H     1.645082     0.506936    -4.520437
 C     1.837624     2.414848    -3.544508
 H     1.890242     2.967636    -4.485414
