  88
scf done:    -2305.475827
 C     1.433604    -3.980513    -0.392644
 H     1.089553    -4.840373    -0.988347
 H     2.449277    -3.771729    -0.761172
 C     1.453656    -4.375426     1.078128
 H     2.129095    -5.230379     1.275393
 H     1.781674    -3.553220     1.737950
 H     0.452609    -4.673373     1.429809
Rh     0.138224    -2.313349    -0.533809
 C     1.812373     0.229457     1.427986
 C     3.611980    -1.660694     0.195651
 C     2.261135     0.284536    -1.496036
 C    -1.588823     0.481605    -1.763920
 C    -3.247646    -1.658537    -0.548658
 C    -1.774861     0.247042     1.176105
 P    -1.603063    -0.757878    -0.399527
 P     1.933905    -0.867019    -0.047627
 C    -0.830512    -3.383510    -1.666606
 O    -1.347692    -4.005681    -2.488915
 H     2.735389     0.811067     1.564827
 H     1.029632     0.969793     1.199482
 C     1.466471    -0.545098     2.693965
 H     2.282325    -1.248881     2.932962
 H     0.586269    -1.185136     2.505398
 C     1.212444     0.366666     3.884164
 H     2.093827     0.989760     4.104559
 H     0.370297     1.050091     3.688677
 H     0.972778    -0.209538     4.790467
 H     3.760624    -2.291172    -0.692287
 H     3.496137    -2.349566     1.045768
 C     4.770093    -0.737524     0.389140
 C     5.075611    -0.204137     1.650356
 H     4.492689    -0.515949     2.520633
 C     5.570913    -0.355751    -0.697141
 H     5.378742    -0.788840    -1.682704
 C     6.113965     0.710607     1.810706
 H     6.330102     1.115027     2.802533
 C     6.610937     0.557823    -0.540270
 H     7.216060     0.842885    -1.404034
 C     6.879805     1.104314     0.713398
 H     7.692579     1.823285     0.838406
 H     1.488753     0.036437    -2.236312
 H     3.220543    -0.046522    -1.922328
 C     2.295166     1.769635    -1.263144
 C     3.265167     2.376504    -0.450870
 H     4.035871     1.766425     0.022773
 C     1.360564     2.598971    -1.896324
 H     0.626625     2.157943    -2.573529
 C     3.267946     3.753670    -0.247810
 H     4.032994     4.198597     0.393052
 C     1.361143     3.978887    -1.696031
 H     0.617038     4.597630    -2.203980
 C     2.309369     4.562133    -0.859362
 H     2.312640     5.642327    -0.695619
 H    -0.807605     1.191389    -1.451142
 H    -1.163476    -0.063516    -2.623514
 C    -2.841184     1.239732    -2.182028
 H    -3.370658     1.626454    -1.299219
 H    -3.533521     0.543814    -2.683383
 C    -2.514396     2.392492    -3.119714
 H    -1.885251     3.139686    -2.610441
 H    -1.971109     2.045626    -4.014049
 H    -3.426472     2.905621    -3.460426
 H    -3.023129    -2.662898    -0.162390
 H    -3.412331    -1.778339    -1.631062
 C    -4.466059    -1.124858     0.140795
 C    -5.405302    -0.314848    -0.508979
 H    -5.262249    -0.063482    -1.560857
 C    -4.703884    -1.458353     1.482853
 H    -4.006722    -2.124693     1.999315
 C    -6.522162     0.173396     0.165053
 H    -7.238788     0.805227    -0.365173
 C    -5.817473    -0.969475     2.162644
 H    -5.977352    -1.242485     3.208467
 C    -6.729054    -0.142576     1.507188
 H    -7.603885     0.242138     2.036325
 H    -0.778704     0.223865     1.630951
 H    -2.432348    -0.332318     1.839439
 C    -2.251712     1.664277     1.060761
 C    -3.580725     2.011517     1.335025
 H    -4.280778     1.242501     1.666110
 C    -1.370405     2.678586     0.659652
 H    -0.321227     2.447503     0.457168
 C    -4.022086     3.323277     1.177290
 H    -5.065591     3.567649     1.390669
 C    -1.810449     3.990228     0.499465
 H    -1.101156     4.757399     0.179424
 C    -3.142557     4.317136     0.749167
 H    -3.491262     5.344705     0.621688
