  60
scf done:    -1539.114482
 C    -2.351829    -1.977960     1.024208
 H    -2.200005    -2.945201     1.533256
 H    -2.762349    -1.317323     1.807292
 C    -3.396296    -2.134046    -0.075849
 H    -3.088914    -2.871596    -0.834256
 H    -4.376771    -2.464332     0.318036
 H    -3.574020    -1.189228    -0.615892
Rh    -0.498537    -1.276059     0.224551
 C    -2.531829     1.451576     0.990727
 C    -1.154404     0.337007     3.272041
 C     0.184520     2.100059     1.557951
 C     2.839244    -0.017023     0.103194
 C     2.093776    -1.712919    -2.087431
 C     1.077655     0.922003    -2.007526
 P     1.366002    -0.517659    -0.896281
 P    -0.947109     0.647112     1.476718
 C    -0.276184    -3.017587    -0.340621
 O    -0.121678    -4.124112    -0.618688
 H    -2.720685     2.317260     1.650142
 H    -3.320901     0.709587     1.186948
 C    -2.532221     1.862472    -0.476157
 H    -1.687723     2.547914    -0.665948
 H    -2.337318     0.966616    -1.094357
 C    -3.815768     2.544946    -0.956646
 H    -3.987328     3.423928    -0.306078
 C    -3.638457     3.047757    -2.384961
 H    -2.784324     3.738266    -2.467879
 H    -4.535821     3.577783    -2.739765
 H    -3.455048     2.206416    -3.073945
 C    -5.035207     1.636308    -0.849956
 H    -5.943369     2.153010    -1.196815
 H    -5.219683     1.303969     0.182393
 H    -4.905984     0.734072    -1.470286
 H    -1.891985    -0.460150     3.430500
 H    -0.191920    -0.003519     3.680103
 H    -1.473078     1.248435     3.801167
 H    -0.271777     2.916143     2.139390
 H     1.123919     1.805865     2.047643
 H     0.425057     2.472518     0.553420
 H     3.126105    -0.928833     0.655698
 H     2.453679     0.676937     0.863807
 C     4.037783     0.579170    -0.619143
 H     4.362040    -0.099405    -1.425989
 H     3.746895     1.523181    -1.114291
 C     5.244463     0.860182     0.283271
 H     5.518215    -0.093114     0.773632
 C     6.435484     1.316626    -0.551590
 H     6.696550     0.574252    -1.321923
 H     7.326621     1.479848     0.073981
 H     6.212601     2.266380    -1.066238
 C     4.927828     1.875088     1.376495
 H     5.813813     2.076564     1.998003
 H     4.128983     1.527763     2.048784
 H     4.604842     2.834520     0.937594
 H     2.438293    -2.603184    -1.541445
 H     1.306338    -2.032137    -2.785314
 H     2.931204    -1.288240    -2.660866
 H     0.794566     1.805909    -1.419558
 H     1.957929     1.164205    -2.621797
 H     0.234170     0.676731    -2.669017
