  84
scf done:    -2301.659149
 C    -1.323616    -3.383294    -0.011959
 H    -1.035351    -4.209811     0.658095
 H    -2.274218    -3.015080     0.411714
 C    -1.536959    -3.924017    -1.420512
 H    -0.619868    -4.385733    -1.819659
 H    -2.329899    -4.694669    -1.460134
 H    -1.823195    -3.136452    -2.137575
Rh     0.191099    -1.859297    -0.004709
 C    -2.982558    -0.671805    -1.008271
 O    -2.445975    -0.471116     1.560028
 O    -1.177498     1.176894     0.025906
 C     1.744577     1.048286     1.294554
 O     3.349905    -0.662517     0.235376
 O     1.833286     0.767085    -1.318803
 P     1.780687    -0.235457    -0.012796
 P    -1.588239    -0.403937     0.164144
 C     1.326068    -3.310902     0.225947
 O     1.961045    -4.241949     0.447748
 H    -3.228741    -1.736537    -0.876474
 H    -2.527319    -0.580558    -2.005806
 C    -4.216248     0.175828    -0.907411
 C    -4.562639     1.043132    -1.950230
 H    -3.932680     1.084887    -2.843138
 C    -5.060105     0.106539     0.210786
 H    -4.804648    -0.570601     1.026628
 C    -5.697157     1.848447    -1.868178
 H    -5.946186     2.520245    -2.693227
 C    -6.193005     0.911175     0.293985
 H    -6.835432     0.848510     1.175847
 C    -6.512959     1.791320    -0.740350
 H    -7.402417     2.421977    -0.671610
 C    -1.786435    -0.445082     2.836745
 H    -0.893142     0.201554     2.751038
 C    -1.347870    -1.836942     3.239154
 H    -0.640081    -2.240268     2.496277
 H    -2.216303    -2.510466     3.299888
 H    -0.852699    -1.810927     4.221527
 C    -2.765242     0.179108     3.808115
 H    -3.082475     1.174118     3.464305
 H    -3.662104    -0.452570     3.899763
 H    -2.309690     0.278986     4.804229
 C    -2.022582     2.326199     0.200063
 H    -3.059260     1.990615     0.358326
 C    -1.937822     3.150996    -1.066573
 H    -2.275041     2.569190    -1.934401
 H    -0.898425     3.467936    -1.243560
 H    -2.571978     4.046426    -0.989043
 C    -1.556797     3.095642     1.420713
 H    -1.591788     2.468831     2.322154
 H    -0.525278     3.456712     1.289549
 H    -2.205068     3.968722     1.588488
 H     1.870738     0.495300     2.237738
 H     0.722639     1.445753     1.261859
 C     2.769541     2.127332     1.137436
 C     2.498824     3.251676     0.348192
 H     1.528017     3.331078    -0.146054
 C     4.029781     2.017155     1.735303
 H     4.258244     1.134103     2.336489
 C     3.457548     4.246020     0.170941
 H     3.227822     5.117470    -0.447366
 C     4.990727     3.010069     1.559018
 H     5.968723     2.908971     2.036310
 C     4.707926     4.129271     0.776902
 H     5.460952     4.909083     0.639673
 C     4.084329    -1.538886    -0.613973
 H     3.371366    -2.131420    -1.220789
 C     4.882990    -2.476240     0.268094
 H     4.220790    -3.071616     0.910176
 H     5.563956    -1.894748     0.908457
 H     5.483803    -3.165663    -0.343491
 C     4.970266    -0.710907    -1.527810
 H     4.376332    -0.009436    -2.128362
 H     5.675448    -0.117956    -0.926051
 H     5.544572    -1.358558    -2.207339
 C     1.656932     0.336100    -2.667938
 H     2.290468    -0.552953    -2.846883
 C     2.153528     1.476335    -3.532511
 H     3.191316     1.733383    -3.276501
 H     1.533362     2.370573    -3.366342
 H     2.105063     1.208457    -4.598299
 C     0.216835    -0.037317    -2.958612
 H    -0.079511    -0.905836    -2.342694
 H    -0.448174     0.807568    -2.725176
 H     0.097834    -0.307939    -4.018603
