 102
scf done:    -2688.685248
 C    -1.601119    -3.270359    -0.949966
 H    -1.582301    -4.235436    -0.419550
 H    -2.623851    -2.884103    -0.810839
 C    -1.313830    -3.483185    -2.429160
 H    -0.329918    -3.951999    -2.591069
 H    -2.066420    -4.134735    -2.913827
 H    -1.311963    -2.535516    -2.997897
Rh    -0.080043    -1.930354    -0.350698
 C    -2.789158    -0.100602    -1.718624
 C    -2.985405    -0.804446     1.134652
 C    -1.352856     1.367527     0.357776
 C     1.869736     0.530958     1.291514
 C     3.392238    -1.133883    -0.674918
 C     1.586197     0.769114    -1.645282
 P     1.718428    -0.465623    -0.292287
 P    -1.768684    -0.346569    -0.164810
 C     0.741655    -3.357532     0.475976
 O     1.137044    -4.190167     1.171043
 H    -2.127724     0.469706    -2.388998
 H    -2.865884    -1.109095    -2.146364
 C    -4.130107     0.551661    -1.588968
 C    -4.230879     1.948504    -1.622339
 H    -3.329687     2.541296    -1.789061
 C    -5.298812    -0.215563    -1.387489
 C    -5.263016    -1.714570    -1.353615
 H    -4.683306    -2.082383    -0.492082
 H    -4.797180    -2.136437    -2.258150
 H    -6.277360    -2.128184    -1.274493
 C    -5.447522     2.595911    -1.428440
 H    -5.494618     3.687131    -1.451613
 C    -6.514766     0.452149    -1.203065
 H    -7.419579    -0.141855    -1.046869
 C    -6.598139     1.842307    -1.211184
 H    -7.562155     2.333701    -1.058949
 C    -2.853154    -2.019196     1.816712
 H    -2.008654    -2.669285     1.575705
 C    -4.041112     0.055204     1.462128
 H    -4.128509     1.024782     0.967113
 C    -3.789155    -2.374222     2.784386
 H    -3.684935    -3.322585     3.316888
 C    -4.995429    -0.296585     2.421976
 C    -6.136056     0.632573     2.719017
 H    -5.771236     1.617455     3.050933
 H    -6.740940     0.805084     1.814559
 H    -6.793671     0.231078     3.502702
 C    -4.856906    -1.526415     3.074455
 H    -5.592563    -1.817875     3.829542
 C    -0.967592     2.349566    -0.560892
 H    -0.975345     2.148412    -1.633499
 C    -1.281712     1.663192     1.726610
 H    -1.571880     0.900527     2.453727
 C    -0.538188     3.596766    -0.111349
 H    -0.249052     4.358218    -0.839583
 C    -0.831648     2.900905     2.192900
 C    -0.701957     3.162592     3.664971
 H    -1.401277     2.545295     4.246579
 H     0.316859     2.922567     4.013311
 H    -0.889688     4.218860     3.906990
 C    -0.466146     3.871620     1.251278
 H    -0.123252     4.852323     1.592851
 H     1.250736     1.420469     1.112182
 H     1.313726    -0.088581     2.010805
 C     3.205128     0.915998     1.844194
 C     3.648746     2.240395     1.745045
 H     2.981321     2.989086     1.308461
 C     4.028390    -0.039771     2.477868
 C     3.564413    -1.450876     2.679389
 H     3.410737    -1.971100     1.721537
 H     2.603725    -1.488765     3.217680
 H     4.297723    -2.029845     3.256476
 C     4.908703     2.621874     2.198883
 H     5.234243     3.660501     2.104064
 C     5.290797     0.359577     2.928616
 H     5.934295    -0.381555     3.410522
 C     5.741557     1.669987     2.781691
 H     6.734884     1.949676     3.140862
 C     3.535076    -2.479350    -1.032065
 H     2.652245    -3.119809    -1.076911
 C     4.523953    -0.311696    -0.656387
 H     4.428625     0.747901    -0.413252
 C     4.795835    -2.989405    -1.330074
 H     4.902758    -4.040248    -1.609446
 C     5.798878    -0.815249    -0.931673
 C     6.995229     0.086759    -0.843176
 H     6.870192     0.978608    -1.477029
 H     7.134770     0.443731     0.190022
 H     7.915219    -0.426860    -1.155538
 C     5.919269    -2.167795    -1.267014
 H     6.907680    -2.579734    -1.489231
 C     0.883674     0.369460    -2.790093
 H     0.459460    -0.639596    -2.833715
 C     2.129064     2.052082    -1.593416
 H     2.679881     2.373675    -0.707644
 C     0.711627     1.258550    -3.846292
 H     0.157255     0.948389    -4.735495
 C     1.962199     2.960435    -2.646064
 C     2.553183     4.337358    -2.554101
 H     2.200629     4.985466    -3.368618
 H     2.296040     4.818857    -1.597592
 H     3.653253     4.299619    -2.609269
 C     1.238560     2.548815    -3.769293
 H     1.089460     3.246509    -4.597999
