  88
scf done:    -2753.761390
 C    -1.170764    -3.454854    -0.950280
 H    -1.259098    -4.348578    -0.314158
 H    -2.202279    -3.096167    -1.093892
 C    -0.541309    -3.802754    -2.292449
 H     0.472081    -4.220448    -2.179604
 H    -1.141101    -4.547197    -2.849691
 H    -0.446142    -2.920179    -2.948830
Rh     0.109580    -1.988190    -0.101305
 C    -1.950127     0.191601    -1.979370
 O    -3.098427    -1.056296     0.040230
 O    -1.372985     0.766305     0.680962
 C     1.711447     0.498679     1.954351
 O     3.197995    -0.833312     0.218315
 O     1.450939     0.826742    -0.795075
 P     1.600187    -0.373864     0.345750
 P    -1.573817    -0.528055    -0.337146
 C     1.032661    -3.415087     0.712347
 O     1.502220    -4.259601     1.328783
 H    -2.059678    -0.699736    -2.620330
 H    -1.002934     0.673633    -2.269830
 C    -3.118264     1.122372    -2.114498
 C    -2.917020     2.502805    -2.219622
 H    -1.898281     2.897782    -2.230976
 C    -4.429779     0.633005    -2.114417
 H    -4.599372    -0.442543    -2.036133
 C    -3.996993     3.377874    -2.290337
 H    -3.818560     4.453366    -2.356753
 C    -5.511242     1.506559    -2.189575
 H    -6.529126     1.109022    -2.184170
 C    -5.299459     2.882227    -2.270417
 H    -6.148927     3.567235    -2.322945
 C    -3.369523    -1.891479     1.093464
 C    -4.477855    -2.727371     0.963993
 H    -5.055024    -2.697772     0.038063
 C    -2.602009    -1.901208     2.258470
 H    -1.739748    -1.239284     2.351445
 C    -4.817311    -3.583730     2.007185
 H    -5.684215    -4.240456     1.903263
 C    -2.948818    -2.769641     3.292291
 H    -2.344377    -2.782542     4.202178
 C    -4.052188    -3.611954     3.173541
 H    -4.316910    -4.288991     3.988418
 C    -2.146241     1.888513     0.856482
 C    -3.523437     1.828982     1.070613
 H    -4.036462     0.868738     1.065216
 C    -1.478497     3.112773     0.867284
 H    -0.400498     3.123920     0.702353
 C    -4.229409     3.014606     1.257379
 H    -5.310724     2.969426     1.404842
 C    -2.195125     4.289630     1.067653
 H    -1.667494     5.246538     1.071243
 C    -3.575418     4.246188     1.255722
 H    -4.140540     5.168699     1.404490
 H     1.824417    -0.329509     2.673915
 H     0.697757     0.904300     2.094658
 C     2.768646     1.545880     2.140045
 C     2.437151     2.904549     2.097869
 H     1.393746     3.198316     1.963119
 C     4.107873     1.187780     2.336923
 H     4.379155     0.130920     2.373825
 C     3.420486     3.882938     2.213144
 H     3.142639     4.938102     2.163046
 C     5.091948     2.165081     2.457695
 H     6.133255     1.868816     2.606422
 C     4.753519     3.516017     2.387904
 H     5.527475     4.282060     2.476183
 C     3.574601    -1.797883    -0.681217
 C     4.492326    -2.756362    -0.255349
 H     4.865467    -2.711514     0.769296
 C     3.062014    -1.829330    -1.979779
 H     2.354180    -1.064523    -2.304929
 C     4.895269    -3.757704    -1.134845
 H     5.609875    -4.512592    -0.798753
 C     3.466405    -2.842712    -2.846990
 H     3.057900    -2.873257    -3.859620
 C     4.380967    -3.808290    -2.430727
 H     4.692734    -4.600484    -3.114588
 C     2.177963     1.968215    -1.020116
 C     3.571454     2.007415    -0.956275
 H     4.129754     1.113558    -0.683300
 C     1.454678     3.106268    -1.379022
 H     0.367784     3.038298    -1.444901
 C     4.227250     3.209246    -1.209129
 H     5.316630     3.242493    -1.136845
 C     2.124097     4.299401    -1.638306
 H     1.551612     5.188441    -1.913888
 C     3.513548     4.358914    -1.545461
 H     4.039365     5.295809    -1.740925
