  96
scf done:    -2610.116990
 C    -1.613473    -3.455661    -0.640291
 H    -1.621548    -4.317178     0.048842
 H    -2.608367    -2.994371    -0.508526
 C    -1.460447    -3.953447    -2.072868
 H    -0.531130    -4.529011    -2.208242
 H    -2.296263    -4.609148    -2.383283
 H    -1.417955    -3.127515    -2.804373
Rh    -0.031950    -2.106933    -0.139163
 C    -2.653724    -0.499705    -1.798420
 C    -2.957898    -0.775428     1.142778
 C    -1.405456     1.344185     0.015970
 C     1.673197     0.482879     1.580192
 C     3.419927    -1.364561     0.307504
 C     1.894018     0.370872    -1.416361
 P     1.742195    -0.652705     0.097992
 P    -1.723866    -0.463585    -0.175280
 C     0.939907    -3.655269     0.095965
 O     1.489292    -4.648900     0.277656
 H    -2.698228    -1.561695    -2.070203
 H    -1.977849    -0.015301    -2.519141
 C    -4.018082     0.110276    -1.810926
 C    -4.209491     1.484812    -2.002536
 H    -3.347756     2.127332    -2.195461
 C    -5.139327    -0.692643    -1.564905
 H    -5.001792    -1.765676    -1.406755
 C    -5.484405     2.042276    -1.927518
 H    -5.613579     3.117452    -2.074003
 C    -6.415023    -0.138359    -1.497266
 H    -7.275965    -0.782705    -1.303140
 C    -6.591687     1.234151    -1.670631
 H    -7.590968     1.672352    -1.613415
 C    -2.727927    -1.834410     2.029568
 H    -1.828031    -2.443887     1.897980
 C    -4.096825     0.022385     1.306633
 H    -4.269642     0.871783     0.642523
 C    -3.638986    -2.092162     3.049950
 H    -3.458196    -2.917271     3.742918
 C    -5.025444    -0.234762     2.320197
 C    -6.254957     0.617613     2.442374
 H    -5.995666     1.685636     2.511802
 H    -6.896000     0.503755     1.553307
 H    -6.847907     0.351241     3.328511
 C    -4.780240    -1.304088     3.188408
 H    -5.493867    -1.517909     3.989256
 C    -0.881669     2.084700    -1.051853
 H    -0.664785     1.609448    -2.009670
 C    -1.619862     1.993815     1.238282
 H    -2.011119     1.427027     2.086349
 C    -0.624322     3.444707    -0.902574
 H    -0.224856     4.010109    -1.747887
 C    -1.356323     3.357868     1.406619
 C    -1.554134     4.013959     2.741686
 H    -1.847992     5.068267     2.634957
 H    -2.323293     3.498565     3.334268
 H    -0.619030     3.991661     3.326744
 C    -0.869055     4.080879     0.311882
 H    -0.669007     5.150825     0.417571
 H     1.677973    -0.234780     2.416730
 H     0.668840     0.926679     1.555077
 C     2.713022     1.545035     1.769966
 C     2.370625     2.891829     1.584561
 H     1.343999     3.144132     1.310418
 C     4.035698     1.237248     2.118178
 H     4.324777     0.197847     2.285171
 C     3.323220     3.899784     1.714101
 H     3.032544     4.942155     1.559924
 C     4.989983     2.244986     2.243618
 H     6.016989     1.982184     2.509012
 C     4.641455     3.579313     2.036612
 H     5.392525     4.366655     2.136034
 C     3.612960    -2.269514     1.361341
 H     2.766726    -2.573693     1.983478
 C     4.505384    -1.009401    -0.492700
 H     4.360309    -0.308598    -1.318326
 C     4.880641    -2.777781     1.616053
 H     5.029713    -3.479451     2.440206
 C     5.788014    -1.521874    -0.252837
 C     6.935609    -1.118309    -1.132372
 H     6.786435    -1.473124    -2.164769
 H     7.033466    -0.022367    -1.178949
 H     7.887732    -1.529998    -0.769566
 C     5.961850    -2.403619     0.816079
 H     6.955763    -2.810260     1.021935
 C     1.276623    -0.147785    -2.565202
 H     0.774150    -1.120422    -2.497662
 C     2.545400     1.604031    -1.493174
 H     3.056160     2.006918    -0.618680
 C     1.289233     0.578474    -3.751889
 H     0.809567     0.171122    -4.645354
 C     2.544402     2.357239    -2.674234
 C     3.204059     3.705501    -2.699263
 H     2.661958     4.417550    -2.055517
 H     4.233822     3.652637    -2.313990
 H     3.237847     4.124189    -3.714804
 C     1.905159     1.830145    -3.800507
 H     1.898226     2.403275    -4.732043
