  76
scf done:    -1997.033173
 C    -1.406667    -2.916865    -0.598321
 H    -1.381738    -3.782570     0.082171
 H    -2.446728    -2.547826    -0.560302
 C    -1.054323    -3.352348    -2.013977
 H    -0.054228    -3.812696    -2.060743
 H    -1.770930    -4.092872    -2.417914
 H    -1.043213    -2.505490    -2.722901
Rh     0.057593    -1.443292    -0.124764
 C    -2.681857     0.115750    -1.750226
 O    -2.891240    -0.355243     0.840000
 O    -1.313335     1.563298     0.176079
 C     1.654898     1.152349     1.589008
 O     3.228680    -0.264767     0.053700
 O     1.531562     1.216226    -1.219349
 P     1.638993     0.171241     0.045295
 P    -1.683974     0.004108    -0.216671
 C     0.989492    -2.771297     0.786331
 O     1.464031    -3.532448     1.509336
 H    -2.147263     0.836496    -2.392751
 H    -2.546929    -0.867890    -2.230765
 C    -4.170126     0.428607    -1.646537
 H    -4.326850     1.408841    -1.168890
 H    -4.635776    -0.305815    -0.972136
 C    -4.854537     0.410513    -3.004626
 H    -4.424815     1.165710    -3.682615
 H    -4.743248    -0.570470    -3.493703
 H    -5.931780     0.617928    -2.914498
 C    -2.645639    -1.101489     2.038806
 H    -1.893923    -1.874521     1.797602
 C    -3.956001    -1.754417     2.417517
 H    -4.312366    -2.399166     1.601463
 H    -4.725589    -0.993132     2.620530
 H    -3.831583    -2.372251     3.319130
 C    -2.083410    -0.201195     3.120146
 H    -1.129220     0.238717     2.795511
 H    -2.786954     0.611896     3.359360
 H    -1.895177    -0.777697     4.038293
 C    -2.275775     2.581777     0.464829
 H    -3.237935     2.096431     0.703228
 C    -2.438744     3.497635    -0.734317
 H    -2.771437     2.947017    -1.624460
 H    -1.482098     3.985505    -0.971644
 H    -3.182483     4.280400    -0.521618
 C    -1.793528     3.334276     1.689738
 H    -1.672500     2.654621     2.543736
 H    -0.823124     3.813479     1.486681
 H    -2.511203     4.120179     1.969035
 H     0.751485     1.780575     1.532172
 H     1.433957     0.387586     2.354547
 C     2.896881     1.934268     1.996885
 H     3.111782     2.727276     1.263709
 H     3.764638     1.257592     1.973156
 C     2.745908     2.555960     3.377221
 H     1.894365     3.254967     3.411195
 H     2.567734     1.785147     4.144120
 H     3.648379     3.114411     3.669345
 C     3.705435    -1.393296    -0.683882
 H     2.839214    -2.041455    -0.915418
 C     4.665004    -2.146338     0.212273
 H     4.154224    -2.483403     1.125332
 H     5.507451    -1.498718     0.501228
 H     5.066394    -3.030097    -0.305593
 C     4.331140    -0.930686    -1.984326
 H     3.580933    -0.435281    -2.615937
 H     5.150511    -0.221284    -1.788811
 H     4.737878    -1.786561    -2.543426
 C     2.350866     2.368398    -1.421819
 H     3.292016     2.240031    -0.858155
 C     1.616740     3.606061    -0.940108
 H     1.344544     3.527953     0.120774
 H     0.689742     3.735253    -1.517693
 H     2.239867     4.503480    -1.072212
 C     2.672413     2.448470    -2.900871
 H     3.230476     1.563108    -3.232769
 H     1.741514     2.508261    -3.485233
 H     3.278403     3.340915    -3.117695
