 100
scf done:    -2462.620531
 C     1.453856    -4.244283    -0.196254
 H     1.087122    -5.151065    -0.702173
 H     2.455197    -4.072186    -0.619022
 C     1.529822    -4.511794     1.301246
 H     2.209147    -5.351607     1.545026
 H     1.886795    -3.638669     1.875015
 H     0.542049    -4.771091     1.715666
Rh     0.155361    -2.590125    -0.433166
 C     1.904898     0.104890     1.232041
 C     3.656400    -1.887426     0.092383
 C     2.232958    -0.084638    -1.700940
 C    -1.602747     0.115144    -1.818652
 C    -3.227347    -1.915456    -0.384396
 C    -1.685378     0.103226     1.136566
 P    -1.574959    -1.017530    -0.364345
 P     1.968624    -1.112529    -0.149730
 C    -0.861244    -3.752593    -1.423930
 O    -1.413006    -4.443471    -2.165071
 H     2.828817     0.699519     1.274732
 H     1.107153     0.819988     0.977187
 C     1.624210    -0.556891     2.575281
 H     2.447409    -1.246741     2.829339
 H     0.730964    -1.200677     2.490138
 C     1.441920     0.455970     3.694804
 H     2.339849     1.083411     3.814166
 H     0.596909     1.131688     3.485391
 H     1.245886    -0.037266     4.658749
 H     3.575990    -2.497643     1.004526
 H     3.767775    -2.594366    -0.741754
 C     4.820274    -0.953261     0.154309
 C     5.583795    -0.682730    -0.988411
 H     5.367231    -1.211052    -1.920691
 C     5.157689    -0.294364     1.345835
 H     4.598937    -0.525380     2.257032
 C     6.621025     0.246406    -0.943596
 H     7.207001     0.448537    -1.843278
 C     6.186179     0.649147     1.407535
 C     6.485076     1.380972     2.683554
 H     6.086906     2.408816     2.646276
 H     6.031253     0.881951     3.551347
 H     7.568163     1.459634     2.860263
 C     6.913859     0.917265     0.240197
 H     7.726842     1.648118     0.266301
 H     3.168279    -0.460356    -2.143931
 H     1.423767    -0.379819    -2.382135
 C     2.291953     1.413388    -1.581903
 C     1.339917     2.211135    -2.227787
 H     0.569817     1.742444    -2.842988
 C     3.305112     2.054953    -0.857846
 H     4.085342     1.456586    -0.384732
 C     1.379864     3.599681    -2.114600
 H     0.629402     4.205070    -2.629452
 C     3.357009     3.444771    -0.725558
 C     4.436026     4.082927     0.101058
 H     5.365073     3.495574     0.060624
 H     4.654682     5.106595    -0.235518
 H     4.133494     4.143569     1.160399
 C     2.373188     4.214668    -1.358196
 H     2.398099     5.304296    -1.269680
 H    -0.800029     0.833387    -1.591542
 H    -1.220023    -0.499927    -2.650680
 C    -2.860702     0.860781    -2.242827
 H    -3.349082     1.318478    -1.370219
 H    -3.581118     0.141370    -2.665233
 C    -2.556826     1.937886    -3.273500
 H    -1.900036     2.710602    -2.843665
 H    -2.052477     1.519799    -4.160155
 H    -3.475427     2.438142    -3.616209
 H    -3.430639    -2.118590    -1.447686
 H    -2.993962    -2.887802     0.071964
 C    -4.418290    -1.320089     0.303172
 C    -4.619756    -1.558048     1.671792
 H    -3.918252    -2.196394     2.216317
 C    -5.360679    -0.542505    -0.374298
 H    -5.236084    -0.368981    -1.444956
 C    -5.710771    -1.004948     2.334627
 H    -5.855274    -1.199077     3.400135
 C    -6.463113     0.025159     0.274004
 C    -7.433708     0.873590    -0.495075
 H    -6.930316     1.752898    -0.927794
 H    -7.879374     0.311772    -1.330957
 H    -8.251581     1.233905     0.144328
 C    -6.624662    -0.210591     1.642770
 H    -7.480277     0.221825     2.168492
 H    -2.325195    -0.419257     1.861670
 H    -0.674600     0.103506     1.558667
 C    -2.155436     1.512799     0.931447
 C    -1.287958     2.483532     0.415638
 H    -0.249364     2.234507     0.183770
 C    -3.470750     1.887483     1.233860
 H    -4.152179     1.143633     1.652086
 C    -1.741906     3.777957     0.172724
 H    -1.052376     4.518626    -0.239905
 C    -3.940336     3.182922     1.001848
 C    -5.352272     3.561381     1.345980
 H    -5.941150     2.679987     1.634574
 H    -5.377968     4.274932     2.185694
 H    -5.855725     4.047585     0.495740
 C    -3.060198     4.124829     0.452903
 H    -3.410744     5.142012     0.256087
