  80
scf done:    -2845.910436
 C    -1.212615    -3.704895    -0.128599
 H    -0.915223    -4.440475    -0.894503
 H    -0.629151    -3.968037     0.771429
 C    -2.698806    -3.829937     0.182411
 H    -3.315493    -3.760375    -0.727489
 H    -2.943065    -4.792997     0.668426
 H    -3.052853    -3.031121     0.855690
Rh    -0.804412    -1.718400    -0.762838
 C     2.144358    -3.248376     0.473023
 O     2.157225    -0.619979    -0.149448
 O     1.060082    -1.451948     2.069851
 C     0.567961     1.041611    -2.579170
 O    -1.915626     1.270338    -1.717236
 O    -0.064197     1.321724     0.095191
 P    -0.535978     0.464841    -1.250138
 P     1.091563    -1.767500     0.427664
 C    -1.791411    -2.106171    -2.314538
 O    -2.240458    -2.366788    -3.337716
 H     3.024304    -3.036788     1.102256
 H     1.552785    -4.017413     0.995480
 C     2.537866    -3.716254    -0.923037
 H     3.152593    -2.938948    -1.406811
 H     1.625887    -3.808392    -1.536892
 C     3.295948    -5.033367    -0.902579
 H     4.223887    -4.953172    -0.314231
 H     2.687160    -5.835494    -0.456185
 H     3.571309    -5.350509    -1.919473
 C     3.476339    -0.456476     0.167158
 C     4.368511    -0.264218    -0.890729
 H     3.990103    -0.304170    -1.913996
 C     3.932451    -0.407511     1.487709
 H     3.226578    -0.554785     2.305472
 C     5.715143    -0.024734    -0.635769
 H     6.429262     0.129516    -1.446569
 C     5.282505    -0.177264     1.743279
 H     5.664419    -0.137096     2.764982
 C     6.157910     0.013310     0.681532
 F     7.446612     0.239094     0.929637
 C    -0.044837    -0.839575     2.614247
 C    -1.226317    -1.561910     2.776841
 H    -1.261590    -2.607595     2.470137
 C     0.025635     0.496645     3.002229
 H     0.951169     1.053245     2.848397
 C    -2.348133    -0.946357     3.324571
 H    -3.284249    -1.490997     3.457958
 C    -1.093673     1.119009     3.548577
 H    -1.071728     2.168872     3.845509
 C    -2.267360     0.388608     3.697746
 F    -3.352919     0.989358     4.192336
 H     1.580148     0.935535    -2.153438
 H     0.486166     0.254210    -3.348542
 C     0.348165     2.418401    -3.196460
 H     0.427163     3.196757    -2.423161
 H    -0.681308     2.476606    -3.581381
 C     1.347183     2.700094    -4.307719
 H     2.381631     2.682451    -3.928331
 H     1.276401     1.951473    -5.113203
 H     1.175026     3.690085    -4.756087
 C    -3.120111     0.975241    -1.129968
 C    -3.244498     0.815873     0.252518
 H    -2.368679     0.907563     0.897371
 C    -4.236180     0.854213    -1.957033
 H    -4.110699     0.970103    -3.034799
 C    -4.492920     0.544442     0.808175
 H    -4.614328     0.436874     1.887005
 C    -5.483614     0.581788    -1.403789
 H    -6.372561     0.479719    -2.028606
 C    -5.596888     0.430243    -0.026055
 F    -6.792787     0.172885     0.503678
 C     0.341285     2.626601     0.126561
 C    -0.597257     3.659733     0.134018
 H    -1.660523     3.419718     0.085891
 C     1.706747     2.906229     0.198186
 H     2.418042     2.078820     0.206348
 C    -0.165464     4.982082     0.187996
 H    -0.874475     5.811849     0.189895
 C     2.140344     4.228218     0.253417
 H     3.201613     4.477256     0.306860
 C     1.198022     5.250291     0.242225
 F     1.610329     6.515920     0.292401
