  88
scf done:    -2702.243645
 C     1.950220    -1.073841    -2.860094
 H     1.982613    -0.770381    -3.914238
 H     2.953516    -0.956982    -2.429690
 C     1.368303    -2.457084    -2.652224
 H     0.884433    -2.867106    -3.549915
 H     2.102014    -3.189900    -2.278133
 H     0.560311    -2.447925    -1.859036
Rh     0.399207    -0.271264    -1.727958
 C     2.177773    -0.831008     1.418961
 C     3.482565     0.896133    -0.500900
 C     1.173502     1.801335     0.842351
 C    -2.247593     1.447845    -0.022311
 C    -2.963366    -1.101193    -1.205087
 C    -1.375104    -1.078237     1.140872
 P    -1.548344    -0.197186    -0.457479
 P     1.815266     0.292819     0.003700
 C    -0.210905     0.785195    -3.114428
 O    -0.494809     1.620923    -3.863241
 H     2.859257    -0.357930     2.145484
 H     1.217354    -0.975486     1.937234
 C     2.705685    -2.181692     0.959144
 H     1.972522    -2.625025     0.263877
 H     3.632528    -2.050752     0.372946
 C     2.959352    -3.140279     2.113652
 H     2.053706    -3.196406     2.743847
 H     3.750558    -2.729747     2.767245
 C     3.346887    -4.541922     1.665249
 H     2.548918    -4.942375     1.014387
 H     4.247307    -4.484789     1.028396
 C     3.592749    -5.497586     2.821338
 H     3.861617    -6.504481     2.467980
 H     2.696749    -5.594568     3.455736
 H     4.412222    -5.141730     3.466287
 C     4.607878     0.830855     0.328864
 H     4.546204     0.364208     1.313801
 C     3.610968     1.506558    -1.755600
 H     2.742835     1.530117    -2.420331
 C     5.830603     1.359820    -0.076848
 H     6.715921     1.309459     0.559580
 C     4.820996     2.054102    -2.169131
 H     4.929591     2.532192    -3.144280
 C     5.919075     1.970641    -1.321581
 F     7.084312     2.480921    -1.712614
 C     0.860427     2.908834     0.038649
 H     1.034900     2.854379    -1.038651
 C     0.915058     1.878084     2.214372
 H     1.155574     1.041861     2.871718
 C     0.289890     4.053697     0.580542
 H     0.033704     4.914612    -0.039378
 C     0.320119     3.012208     2.770018
 H     0.097285     3.076701     3.836804
 C     0.007835     4.081904     1.943112
 F    -0.582694     5.156108     2.463495
 H    -1.494213     1.916932     0.629548
 H    -2.203293     2.019713    -0.963836
 C    -3.633565     1.535925     0.596023
 H    -4.385692     1.162530    -0.118381
 H    -3.706330     0.875908     1.477602
 C    -3.977784     2.961953     1.008182
 H    -3.921254     3.619345     0.121709
 H    -3.204808     3.340230     1.702723
 C    -5.349449     3.097130     1.653527
 H    -6.116977     2.720096     0.954696
 H    -5.399837     2.434848     2.536289
 C    -5.683140     4.522392     2.063230
 H    -6.677134     4.589428     2.530675
 H    -5.678158     5.198889     1.193550
 H    -4.947769     4.912679     2.785132
 C    -3.996889    -1.633080    -0.419712
 H    -3.955912    -1.545748     0.668369
 C    -3.028676    -1.250427    -2.595211
 H    -2.213134    -0.861854    -3.210026
 C    -5.075240    -2.287168    -1.005707
 H    -5.884846    -2.708867    -0.407316
 C    -4.105152    -1.898289    -3.196201
 H    -4.166768    -2.021441    -4.278891
 C    -5.115726    -2.407498    -2.391090
 F    -6.144201    -3.034204    -2.955220
 C    -1.050005    -2.443388     1.087634
 H    -1.010917    -2.950835     0.119549
 C    -1.417083    -0.449523     2.389038
 H    -1.661692     0.610456     2.465763
 C    -0.760615    -3.160398     2.240617
 H    -0.501078    -4.220058     2.207548
 C    -1.117908    -1.154291     3.556792
 H    -1.135155    -0.671343     4.535544
 C    -0.785220    -2.498167     3.465238
 F    -0.470207    -3.171835     4.568910
