  86
scf done:    -2079.401703
 C    -1.415075    -2.898128    -0.036917
 H    -1.075407    -3.836097     0.419434
 H    -2.451503    -2.711052     0.273583
 C    -1.216738    -2.842798    -1.530299
 H    -0.609701    -3.665922    -1.931466
 H    -2.156160    -2.781053    -2.104673
 H    -0.662568    -1.890084    -1.827764
Rh    -0.030701    -1.349499     0.103515
 C    -2.895582     0.441118    -1.033951
 C    -3.063378    -0.583772     1.735419
 C    -1.575699     1.845420     1.194201
 C     2.585559     0.999782     0.558101
 C     3.326505    -1.527946    -0.770688
 C     1.979919     0.562071    -2.313279
 P     1.922872    -0.273405    -0.640604
 P    -1.831033     0.131204     0.486854
 C     0.939059    -2.148481     1.439322
 O     1.498977    -2.491125     2.395969
 H    -2.289399     1.130610    -1.642260
 H    -2.874027    -0.517590    -1.568677
 C    -4.295476     0.948577    -0.884483
 C    -4.523382     2.312929    -0.658606
 H    -3.671641     2.996944    -0.646932
 C    -5.402015     0.073371    -0.943131
 C    -5.242801    -1.383349    -1.278256
 H    -4.574890    -1.911488    -0.580635
 H    -4.815795    -1.518062    -2.285800
 H    -6.213740    -1.896743    -1.259725
 C    -5.802975     2.813276    -0.439771
 H    -5.949116     3.880805    -0.259082
 C    -6.681706     0.591904    -0.715316
 H    -7.538016    -0.087328    -0.752122
 C    -6.890539     1.943507    -0.453704
 H    -7.901804     2.316861    -0.276632
 H    -3.644269    -1.278733     1.107279
 C    -2.388173    -1.413457     2.823865
 H    -3.154334    -1.939509     3.416123
 H    -1.696328    -2.153128     2.404209
 H    -1.813142    -0.784401     3.519266
 C    -4.052593     0.398038     2.359798
 H    -4.585648     1.010976     1.622752
 H    -4.809936    -0.166125     2.927930
 H    -3.557186     1.071270     3.076322
 H    -2.582252     2.225697     1.432175
 C    -0.765627     1.744178     2.483659
 H    -0.523731     2.749459     2.864854
 H    -1.306581     1.210534     3.276142
 H     0.177469     1.203603     2.308679
 C    -0.918524     2.820268     0.232875
 H    -1.459188     2.926064    -0.718602
 H    -0.862527     3.819951     0.693198
 H     0.104304     2.506320    -0.004682
 H     1.904709     1.856639     0.451567
 H     2.358185     0.564157     1.540094
 C     4.013074     1.441202     0.466484
 C     4.391166     2.374352    -0.507796
 H     3.623487     2.803286    -1.156643
 C     4.995558     0.922056     1.337134
 C     4.645122    -0.009025     2.463906
 H     4.133229    -0.922761     2.126532
 H     3.969246     0.475493     3.187429
 H     5.547127    -0.316762     3.009938
 C     5.718087     2.759279    -0.672383
 H     5.986489     3.482815    -1.445669
 C     6.325601     1.318030     1.155687
 H     7.090116     0.911252     1.823380
 C     6.695549     2.215764     0.157428
 H     7.743551     2.500797     0.039431
 H     3.607720    -1.635763     0.291148
 C     2.860906    -2.902890    -1.247096
 H     3.658040    -3.642897    -1.071930
 H     1.956809    -3.231283    -0.716104
 H     2.641923    -2.911329    -2.325331
 C     4.560688    -1.088762    -1.554669
 H     4.956722    -0.116224    -1.238910
 H     5.362263    -1.832425    -1.417693
 H     4.353090    -1.041709    -2.635078
 H     3.032785     0.852267    -2.466634
 C     1.575033    -0.418361    -3.409176
 H     1.601891     0.081412    -4.390551
 H     2.235171    -1.293202    -3.464260
 H     0.547090    -0.781482    -3.249324
 C     1.111193     1.806410    -2.393495
 H     1.410501     2.586988    -1.680190
 H     1.175669     2.243219    -3.402987
 H     0.057039     1.557823    -2.199973
