  88
scf done:    -2305.492018
 C     1.969857    -1.914707    -2.224814
 H     1.835354    -2.141360    -3.294142
 H     2.899521    -1.329232    -2.156238
 C     2.093682    -3.215351    -1.446563
 H     1.170689    -3.816624    -1.496849
 H     2.913580    -3.852212    -1.830629
 H     2.307661    -3.042860    -0.378583
Rh     0.345238    -0.840316    -1.401607
 C     1.399567    -0.457385     2.038864
 C     3.567134    -0.315983     0.140416
 C     1.709988     1.817993     0.264144
 C    -2.209079     1.490610    -1.562947
 C    -3.024283    -1.124031    -0.547520
 C    -1.734520     0.745371     1.175771
 P    -1.624524     0.069323    -0.530126
 P     1.760509    -0.015541     0.280424
 C    -0.363242    -0.935725    -3.093891
 O    -0.736890    -0.882023    -4.183856
 H     2.295846    -0.281893     2.656342
 H     0.624018     0.244119     2.384280
 C     0.896423    -1.889048     2.189567
 H     1.611681    -2.598807     1.741578
 H    -0.024685    -1.999809     1.592390
 C     0.640180    -2.266214     3.638769
 H     1.567458    -2.225100     4.232886
 H    -0.078895    -1.575049     4.103589
 H     0.234188    -3.285665     3.724389
 C     4.311184     0.420393    -0.790759
 H     3.827227     1.203688    -1.378856
 C     4.206568    -1.314299     0.878983
 H     3.644112    -1.901570     1.608992
 C     5.666139     0.159797    -0.960401
 H     6.244016     0.743054    -1.681412
 C     5.568405    -1.595249     0.710754
 C     6.216047    -2.700904     1.493071
 H     5.877948    -2.706014     2.540290
 H     5.960884    -3.684553     1.064941
 H     7.311598    -2.612076     1.487823
 C     6.290841    -0.840893    -0.216997
 H     7.356616    -1.039629    -0.359243
 C     2.060235     2.590886     1.375771
 H     2.403160     2.115007     2.296791
 C     1.292067     2.450509    -0.910157
 H     1.024574     1.816169    -1.764520
 C     1.957111     3.977323     1.309397
 H     2.222200     4.584532     2.178586
 C     1.187468     3.844614    -0.992950
 C     0.697006     4.498191    -2.252505
 H     1.086672     3.988389    -3.145600
 H    -0.403767     4.458932    -2.315802
 H     0.991487     5.556033    -2.301592
 C     1.518841     4.597525     0.139007
 H     1.441081     5.687805     0.100606
 H    -1.378958     2.215906    -1.519550
 H    -2.203148     1.105863    -2.595934
 C    -3.532819     2.169062    -1.246221
 H    -3.577462     2.421341    -0.173357
 H    -4.358397     1.464567    -1.433601
 C    -3.739770     3.428326    -2.075448
 H    -2.956912     4.175961    -1.867376
 H    -3.705497     3.207056    -3.154143
 H    -4.711927     3.897879    -1.861268
 C    -2.825020    -2.378535    -1.129989
 H    -1.841748    -2.620296    -1.543922
 C    -4.276222    -0.823899     0.010351
 H    -4.430378     0.137286     0.506309
 C    -3.868495    -3.303862    -1.168250
 H    -3.706805    -4.284311    -1.622637
 C    -5.330428    -1.738533    -0.022936
 C    -6.671097    -1.395831     0.559958
 H    -6.626256    -0.473770     1.156472
 H    -7.420709    -1.243348    -0.233831
 H    -7.046466    -2.203421     1.207070
 C    -5.107873    -2.985635    -0.624539
 H    -5.919420    -3.718512    -0.656070
 C    -1.325498     2.056512     1.448662
 H    -0.996692     2.717345     0.644738
 C    -2.128561    -0.073161     2.243877
 H    -2.451383    -1.098296     2.044370
 C    -1.306756     2.523110     2.761595
 H    -0.971948     3.543446     2.962526
 C    -2.129553     0.387135     3.563282
 C    -2.608134    -0.488780     4.685178
 H    -3.618915    -0.191267     5.010166
 H    -2.655936    -1.543890     4.381605
 H    -1.951386    -0.413831     5.565141
 C    -1.702142     1.698442     3.810367
 H    -1.685746     2.076086     4.836587
