 100
scf done:    -3305.885044
 C     3.031981     1.445839    -2.193168
 H     3.858259     1.966451    -1.677737
 H     3.357668     0.395347    -2.298260
 C     2.823584     2.033606    -3.581790
 H     2.648756     3.120697    -3.548413
 H     3.697437     1.864210    -4.238713
 H     1.952139     1.588547    -4.090476
Rh     1.265454     1.439486    -1.040402
 O     1.411086    -1.586526     0.699792
 C     3.895014    -0.730445     0.074153
 C     2.218793     0.532565     2.062488
 O    -0.919757     1.042700     1.520047
 C    -2.040880     2.564493    -0.439976
 C    -1.713675    -0.274313    -0.824504
 P    -0.843578     1.203721    -0.168061
 P     2.192836    -0.108840     0.358482
 C     1.091599     3.257452    -1.355815
 O     1.046630     4.408854    -1.321072
 C     0.924744    -2.401174    -0.265456
 C     1.102374    -2.179680    -1.636625
 H     1.681053    -1.322124    -1.988795
 C     0.170692    -3.501917     0.160015
 H     0.057835    -3.678427     1.231392
 C     0.499160    -3.026229    -2.564172
 H     0.623889    -2.845905    -3.633148
 C    -0.430556    -4.346346    -0.764876
 H    -1.029253    -5.196393    -0.433852
 C    -0.273933    -4.099113    -2.128976
Cl    -1.053806    -5.128589    -3.285010
 H     4.525088     0.162103    -0.076090
 H     3.872384    -1.241131    -0.901435
 C     4.456241    -1.639039     1.157304
 H     4.585211    -1.059548     2.086760
 H     3.724606    -2.432372     1.390614
 C     5.796315    -2.290580     0.800806
 H     6.494313    -1.482721     0.510397
 C     6.377185    -2.996778     2.020632
 H     6.511870    -2.301619     2.864054
 H     7.356024    -3.447748     1.796023
 H     5.708128    -3.805620     2.358940
 C     5.674236    -3.254830    -0.374387
 H     6.644352    -3.720521    -0.606068
 H     5.324837    -2.757532    -1.291634
 H     4.961929    -4.064199    -0.141729
 H     2.519872    -0.266791     2.756964
 H     1.170353     0.784373     2.276367
 C     3.117512     1.764974     2.167859
 H     4.155807     1.445371     2.360421
 H     3.131962     2.297865     1.198406
 C     2.677334     2.761595     3.243937
 H     2.496587     2.193256     4.176241
 C     3.782833     3.774736     3.515600
 H     4.709347     3.284056     3.853083
 H     3.483085     4.498161     4.289524
 H     4.020060     4.345502     2.602255
 C     1.380385     3.464316     2.852363
 H     1.039481     4.138995     3.652936
 H     0.566881     2.754969     2.640476
 H     1.531231     4.069150     1.942651
 C    -1.886715     0.345426     2.177947
 C    -1.733924    -1.030523     2.360607
 H    -0.818501    -1.506926     2.005750
 C    -3.018204     0.997401     2.672040
 H    -3.104284     2.079341     2.557250
 C    -2.747860    -1.768772     2.960919
 H    -2.653830    -2.848846     3.084843
 C    -4.032444     0.262951     3.279710
 H    -4.932269     0.755541     3.651436
 C    -3.903182    -1.120634     3.397805
Cl    -5.193799    -2.045619     4.091379
 H    -1.608320     3.446390     0.062266
 H    -2.985896     2.321473     0.070225
 C    -2.253118     2.843702    -1.924346
 H    -1.284581     2.771428    -2.449815
 H    -2.893316     2.057646    -2.363287
 C    -2.865478     4.212893    -2.226472
 H    -2.182547     4.972232    -1.801605
 C    -2.935489     4.437767    -3.731838
 H    -1.941843     4.346737    -4.197214
 H    -3.328580     5.438120    -3.969858
 H    -3.598631     3.697244    -4.209813
 C    -4.234158     4.388421    -1.578834
 H    -4.660658     5.375568    -1.814598
 H    -4.187785     4.304024    -0.482413
 H    -4.941406     3.624577    -1.944629
 H    -1.187948    -1.137373    -0.388826
 H    -1.423589    -0.285445    -1.888672
 C    -3.221590    -0.435019    -0.657729
 H    -3.526149    -0.170200     0.364362
 H    -3.755933     0.263719    -1.325195
 C    -3.696719    -1.864390    -0.938378
 H    -3.078384    -2.534968    -0.312004
 C    -5.148461    -2.037322    -0.508797
 H    -5.277087    -1.829312     0.565250
 H    -5.500662    -3.063350    -0.697164
 H    -5.809345    -1.352762    -1.066654
 C    -3.492442    -2.265868    -2.394079
 H    -3.786296    -3.312419    -2.565366
 H    -2.440460    -2.176781    -2.702602
 H    -4.098506    -1.631831    -3.063282
