  96
scf done:    -3901.670933
 C     2.383400     0.802749     3.708823
 H     2.388959     0.368712     4.715376
 H     3.388207     0.751209     3.276968
 C     1.747556     2.173085     3.638207
 H     1.425253     2.559969     4.616103
 H     2.390107     2.921599     3.149765
 H     0.795565     2.167107     3.018528
Rh     0.853243     0.094766     2.482913
 O     1.896281     0.547650    -0.808405
 O     3.768386     0.629722     0.934939
 O     2.623563    -1.521078     0.316505
 O    -1.299584    -1.565170     0.512285
 O    -2.453272    -0.028297     2.188183
 O    -1.263365     0.945488     0.114306
 P    -1.065011    -0.142860     1.314131
 P     2.249865     0.013085     0.738497
 C     0.509355    -1.241991     3.741946
 O     0.423126    -2.154577     4.434488
 C     1.279126     1.729827    -1.089447
 C     1.343371     2.836300    -0.241173
 H     1.931505     2.791011     0.676331
 C     0.567542     1.809575    -2.287268
 H     0.539453     0.940023    -2.944796
 C     0.646264     3.997805    -0.563699
 H     0.675568     4.862123     0.101498
 C    -0.123068     2.969939    -2.613243
 H    -0.706756     3.028667    -3.532721
 C    -0.099379     4.055165    -1.737921
Cl    -1.013936     5.479484    -2.107246
 C     4.864213     0.265123     0.177819
 C     5.481522    -0.959874     0.427721
 H     5.071662    -1.606344     1.204012
 C     5.352814     1.149996    -0.793756
 C     4.712040     2.482317    -1.032334
 H     3.804796     2.391816    -1.649411
 H     4.408633     2.953786    -0.087062
 H     5.403019     3.158837    -1.553493
 C     6.588542    -1.342989    -0.322350
 H     7.063748    -2.307806    -0.132448
 C     6.473105     0.740348    -1.527143
 H     6.874521     1.417183    -2.286394
 C     7.082872    -0.492217    -1.309012
 H     7.952043    -0.783112    -1.903045
 C     2.425057    -2.253265    -0.827597
 C     2.952100    -1.848567    -2.051943
 H     3.531445    -0.926972    -2.108605
 C     1.705273    -3.449213    -0.685834
 C     1.176765    -3.854342     0.654762
 H     0.667073    -4.825387     0.598650
 H     1.987117    -3.922735     1.396569
 H     0.464886    -3.106934     1.034581
 C     2.724633    -2.630946    -3.182599
 H     3.131128    -2.315311    -4.146263
 C     1.501655    -4.215173    -1.836789
 H     0.934150    -5.145627    -1.752845
 C     1.992953    -3.812104    -3.077390
 H     1.809859    -4.426815    -3.961484
 C    -1.727105    -1.746130    -0.782198
 C    -0.844209    -1.519937    -1.836295
 H     0.172009    -1.184266    -1.630803
 C    -3.023770    -2.194784    -1.023936
 H    -3.701391    -2.370622    -0.187805
 C    -1.263779    -1.727658    -3.145999
 H    -0.577329    -1.562452    -3.977640
 C    -3.446126    -2.401668    -2.334210
 H    -4.460852    -2.745419    -2.539544
 C    -2.566786    -2.161135    -3.389605
Cl    -3.095670    -2.410756    -5.020962
 C    -3.655082    -0.669092     1.947748
 C    -4.662515    -0.001967     1.256410
 H    -4.486733     1.012679     0.899688
 C    -3.839453    -1.963522     2.458298
 C    -2.759736    -2.645736     3.237060
 H    -1.908770    -2.908813     2.589675
 H    -2.369200    -1.992378     4.030420
 H    -3.132041    -3.569543     3.699157
 C    -5.875862    -0.643367     1.019657
 H    -6.660973    -0.122023     0.467948
 C    -5.068873    -2.581662     2.204393
 H    -5.233540    -3.592303     2.587322
 C    -6.076810    -1.940643     1.485405
 H    -7.024091    -2.452363     1.301358
 C    -2.320244     1.719418    -0.303137
 C    -2.959182     1.392510    -1.495531
 H    -2.641952     0.504615    -2.041777
 C    -2.665029     2.857979     0.438304
 C    -1.958105     3.189595     1.715305
 H    -2.276037     2.520474     2.530993
 H    -0.871665     3.067272     1.599382
 H    -2.163077     4.224233     2.020927
 C    -3.986229     2.204377    -1.967200
 H    -4.490297     1.948182    -2.901630
 C    -3.700007     3.655027    -0.062573
 H    -3.983321     4.552778     0.492779
 C    -4.360225     3.337682    -1.247603
 H    -5.160716     3.983824    -1.614090
