  96
scf done:    -2610.096490
 C    -1.335849    -3.942261    -0.246309
 H    -0.969328    -4.809709     0.324109
 H    -2.314853    -3.704966     0.205848
 C    -1.479378    -4.331293    -1.711177
 H    -2.181714    -5.174323    -1.858010
 H    -1.843866    -3.499787    -2.339644
 H    -0.512176    -4.642548    -2.136664
Rh    -0.007982    -2.298035    -0.193113
 C    -1.711492     0.745551    -1.268964
 C    -3.510816    -1.544506    -0.962829
 C    -2.138718    -0.443985     1.466559
 C     1.940077     0.053901     1.412002
 C     3.326431    -1.714361    -0.592970
 C     1.831973     0.654369    -1.515771
 P     1.749990    -0.749397    -0.271583
 P    -1.877958    -0.873660    -0.338438
 C     1.050992    -3.395627     0.820378
 O     1.632709    -4.016852     1.601515
 H    -1.093524     0.465322    -2.134541
 H    -1.090293     1.386144    -0.626450
 C    -2.917763     1.487860    -1.757931
 C    -3.517868     2.504521    -1.006091
 H    -3.099384     2.779598    -0.038332
 C    -3.457741     1.187554    -3.017191
 H    -2.980066     0.424731    -3.639327
 C    -4.644527     3.171226    -1.480846
 H    -5.097911     3.955974    -0.870586
 C    -4.585760     1.852221    -3.494175
 H    -4.990528     1.597674    -4.476558
 C    -5.190503     2.842937    -2.721234
 H    -6.075794     3.365513    -3.090930
 H    -3.358061    -2.628280    -1.042718
 H    -3.618173    -1.159070    -1.986140
 C    -4.750235    -1.270472    -0.165832
 C    -5.627842    -0.232665    -0.502462
 H    -5.413786     0.396113    -1.367402
 C    -5.065799    -2.075766     0.938428
 H    -4.409640    -2.912187     1.197475
 C    -6.772247     0.006886     0.254980
 H    -7.440226     0.824293    -0.027202
 C    -6.206872    -1.833999     1.700893
 H    -6.430909    -2.472832     2.558520
 C    -7.063330    -0.785469     1.364871
 H    -7.958971    -0.594208     1.960572
 H    -1.163768    -0.674331     1.917639
 H    -2.840799    -1.201578     1.842702
 C    -2.575318     0.934723     1.853265
 C    -3.917522     1.238101     2.109696
 H    -4.672641     0.455363     2.027180
 C    -1.624029     1.955277     1.993397
 H    -0.566560     1.725413     1.839275
 C    -4.298392     2.529639     2.466835
 H    -5.352571     2.743750     2.658537
 C    -2.002515     3.249114     2.346140
 H    -1.242720     4.027797     2.449257
 C    -3.346421     3.543008     2.577804
 H    -3.648046     4.555523     2.855972
 H     1.298499    -0.564630     2.055793
 H     1.458974     1.038895     1.323876
 C     3.296760     0.187751     2.030398
 C     4.014232     1.387907     1.968465
 H     3.580526     2.249978     1.459503
 C     3.865729    -0.899251     2.709719
 H     3.307031    -1.836547     2.790905
 C     5.277053     1.491179     2.547094
 H     5.821501     2.436412     2.483062
 C     5.130066    -0.797399     3.286808
 H     5.557664    -1.656573     3.809031
 C     5.843963     0.398284     3.202153
 H     6.835290     0.479624     3.654142
 H     2.977301    -2.535759    -1.236389
 H     3.586404    -2.171493     0.373208
 C     4.515830    -1.050206    -1.214701
 C     5.548840    -0.506608    -0.441328
 H     5.500243    -0.571310     0.645581
 C     4.627713    -0.982101    -2.611427
 H     3.852181    -1.437496    -3.234551
 C     6.639473     0.115005    -1.044295
 H     7.429391     0.535618    -0.417382
 C     5.716657    -0.358134    -3.217555
 H     5.780221    -0.315108    -4.307501
 C     6.725165     0.201605    -2.433621
 H     7.580465     0.691478    -2.904916
 H     0.796977     0.803102    -1.842343
 H     2.379372     0.247017    -2.377903
 C     2.419309     1.967542    -1.092694
 C     3.754138     2.294615    -1.360423
 H     4.385472     1.586233    -1.897235
 C     1.627856     2.913722    -0.424301
 H     0.571676     2.701613    -0.237182
 C     4.286267     3.514352    -0.949154
 H     5.332209     3.742384    -1.167746
 C     2.158913     4.132550    -0.007279
 H     1.520915     4.851687     0.512185
 C     3.496024     4.435587    -0.262727
 H     3.915887     5.390443     0.061975
