  88
scf done:    -2305.476403
 C    -2.249703     0.074679    -2.903955
 H    -2.020252    -0.130989    -3.961271
 H    -2.983833    -0.688567    -2.603439
 C    -2.842573     1.470023    -2.778366
 H    -2.128288     2.250649    -3.088575
 H    -3.747185     1.594494    -3.403747
 H    -3.144969     1.704614    -1.743987
Rh    -0.544812    -0.002497    -1.654428
 C    -1.920563     0.660188     1.597870
 C    -3.718671    -0.812223    -0.110151
 C    -1.413973    -2.118671     0.895095
 C     2.654857    -1.079458    -0.887712
 C     2.256300     1.827572    -0.777073
 C     1.489673     0.174769     1.416759
 P     1.427026     0.225239    -0.421273
 P    -1.928965    -0.515569     0.171475
 C     0.381342    -0.238665    -3.225588
 O     0.935346    -0.494444    -4.203428
 H    -2.835066     0.531276     2.199100
 H    -1.069607     0.371056     2.233855
 C    -1.748763     2.102728     1.137491
 H    -0.821509     2.169289     0.541395
 H    -2.552357     2.385459     0.435397
 C    -1.699569     3.102323     2.282249
 H    -0.957272     2.762586     3.025617
 H    -2.670066     3.109797     2.811547
 C    -1.352520     4.513101     1.828067
 H    -0.385261     4.489124     1.294636
 H    -2.092793     4.846447     1.079386
 C    -1.285763     5.516293     2.967764
 H    -1.027929     6.524241     2.609030
 H    -0.526858     5.224351     3.711939
 H    -2.250471     5.587632     3.495630
 C    -4.135377    -2.033887    -0.654923
 C    -4.675152     0.181054     0.127940
 C    -6.424971    -1.264551    -0.700719
 C    -6.019456    -0.044544    -0.164941
 C    -5.478167    -2.259325    -0.943837
 H    -3.400136    -2.818277    -0.851172
 H    -5.786808    -3.219347    -1.364424
 H    -7.478532    -1.440780    -0.930000
 H    -6.753403     0.741677     0.027637
 H    -4.378540     1.145621     0.545104
 C    -1.733275    -2.487667     2.205926
 C    -0.665541    -2.992734     0.097870
 C    -0.527259    -4.563796     1.926707
 C    -0.226205    -4.212644     0.610923
 C    -1.284559    -3.701700     2.721146
 H    -2.326379    -1.820788     2.836020
 H    -1.527834    -3.977968     3.750065
 H    -0.176284    -5.515207     2.334021
 H     0.358675    -4.888429    -0.017994
 H    -0.420324    -2.679241    -0.923789
 H     2.136236    -2.028385    -0.665862
 H     2.711137    -1.033385    -1.987305
 C     4.043990    -1.069717    -0.271569
 H     4.605657    -0.196962    -0.642203
 H     3.971457    -0.951157     0.823515
 C     4.827517    -2.337673    -0.586465
 H     4.879679    -2.474319    -1.681891
 H     4.272038    -3.213354    -0.202953
 C     6.235506    -2.340241    -0.007907
 H     6.786291    -1.465128    -0.395991
 H     6.176399    -2.193866     1.085339
 C     7.012205    -3.610607    -0.313841
 H     8.024877    -3.582336     0.116170
 H     7.116224    -3.763036    -1.400185
 H     6.502434    -4.498447     0.093989
 C     1.647322     2.690926    -1.695555
 C     3.448656     2.230526    -0.156480
 C     3.415198     4.307192    -1.391892
 C     4.025396     3.459193    -0.466209
 C     2.223458     3.923626    -2.002189
 H     0.708142     2.377078    -2.163503
 H     1.734989     4.586086    -2.720645
 H     3.868659     5.272278    -1.631084
 H     4.955137     3.760220     0.022772
 H     3.918767     1.591030     0.592879
 C     1.466012     1.348406     2.183221
 C     1.460928    -1.059132     2.083042
 C     1.374466     0.056987     4.225343
 C     1.403242    -1.116578     3.473543
 C     1.410058     1.289317     3.574371
 H     1.489591     2.321737     1.688821
 H     1.394584     2.216248     4.153104
 H     1.328539     0.011679     5.315927
 H     1.374170    -2.090065     3.968226
 H     1.466726    -1.992308     1.516817
