 106
scf done:    -2989.326731
 C     1.422128    -3.329889    -0.426667
 H     1.345159    -4.009419    -1.290525
 H     2.460784    -2.964453    -0.438416
 C     1.158986    -4.098730     0.859058
 H     0.142266    -4.524116     0.881992
 H     1.865826    -4.939474     0.999407
 H     1.256651    -3.456920     1.751898
Rh    -0.021522    -1.785376    -0.419966
 C     2.709717    -0.646516     1.403770
 C     2.937706    -0.350889    -1.550725
 C     1.369254     1.520557    -0.109487
 C    -2.276672     0.730378    -1.325922
 C    -3.284584    -1.232325     0.700458
 C    -1.468956     0.762108     1.535433
 P    -1.780035    -0.353344     0.112569
 P     1.734795    -0.278464    -0.160270
 C    -0.946168    -2.760797    -1.666679
 O    -1.413733    -3.247251    -2.607708
 H     2.047079    -0.284669     2.205725
 H     2.650036    -1.743994     1.443222
 C     4.122358    -0.194670     1.636312
 C     4.374375     0.940362     2.416623
 H     3.533781     1.480871     2.855340
 C     5.221854    -0.923634     1.129824
 C     5.049882    -2.214180     0.382978
 H     4.509529    -2.077107    -0.564441
 H     4.477824    -2.948050     0.973033
 H     6.025948    -2.661423     0.151433
 C     5.665931     1.397791     2.658100
 H     5.823810     2.287785     3.272207
 C     6.514731    -0.444333     1.372689
 H     7.362737    -1.008800     0.974814
 C     6.747794     0.707986     2.118713
 H     7.770372     1.051011     2.293950
 C     2.744246    -1.290059    -2.564093
 H     1.865937    -1.936269    -2.491422
 C     4.020804     0.548035    -1.657847
 O     4.116778     1.497786    -0.715554
 C     5.174310     2.411857    -0.743313
 H     6.149463     1.905530    -0.646260
 H     5.031984     3.070130     0.122155
 H     5.163109     3.017732    -1.666450
 C     3.630819    -1.399643    -3.634055
 H     3.463419    -2.150829    -4.408469
 C     4.919735     0.433846    -2.725088
 H     5.770992     1.110423    -2.800982
 C     4.725610    -0.543431    -3.699834
 H     5.437999    -0.621426    -4.525203
 C     1.493089     2.314609     1.025798
 H     1.801027     1.861573     1.965960
 C     0.909079     2.127201    -1.298744
 O     0.765101     1.307984    -2.357034
 C     0.390290     1.822462    -3.601763
 H    -0.621002     2.266138    -3.574902
 H     0.388673     0.973842    -4.297019
 H     1.107470     2.581073    -3.960192
 C     1.212783     3.680594     0.998229
 H     1.319253     4.274285     1.907831
 C     0.617035     3.493532    -1.333946
 H     0.268509     3.959080    -2.256359
 C     0.781375     4.267992    -0.184253
 H     0.558632     5.337111    -0.222116
 H    -1.560391     1.562433    -1.272785
 H    -1.953437     0.118617    -2.180694
 C    -3.664788     1.252944    -1.547219
 C    -3.909301     2.623302    -1.377469
 H    -3.078239     3.274008    -1.090151
 C    -4.717286     0.423375    -1.986929
 C    -4.544484    -1.040716    -2.279877
 H    -4.970475    -1.662060    -1.476974
 H    -3.494663    -1.339043    -2.388241
 H    -5.065628    -1.307784    -3.211629
 C    -5.168220     3.176912    -1.579623
 H    -5.324654     4.249456    -1.440625
 C    -5.982162     0.996709    -2.179810
 H    -6.799183     0.353141    -2.519072
 C    -6.220188     2.351552    -1.972700
 H    -7.218157     2.764785    -2.138413
 C    -3.289871    -2.627834     0.705616
 H    -2.385584    -3.142222     0.370455
 C    -4.430940    -0.552001     1.168533
 O    -4.366051     0.786210     1.211359
 C    -5.486297     1.530866     1.595178
 H    -6.335260     1.361329     0.911885
 H    -5.190735     2.585203     1.532919
 H    -5.791700     1.301806     2.630968
 C    -4.410208    -3.353828     1.107024
 H    -4.391080    -4.445238     1.089823
 C    -5.563069    -1.276195     1.559573
 H    -6.459268    -0.755795     1.897193
 C    -5.548775    -2.669726     1.520075
 H    -6.441987    -3.220221     1.826423
 C    -1.757535     2.122839     1.563993
 H    -2.216785     2.588110     0.693324
 C    -0.895117     0.171640     2.680964
 O    -0.657927    -1.154982     2.605633
 C    -0.231575    -1.851315     3.743357
 H     0.776349    -1.534297     4.064267
 H    -0.196274    -2.910450     3.461691
 H    -0.935763    -1.720998     4.582781
 C    -1.484485     2.899607     2.689317
 H    -1.717763     3.966101     2.684154
 C    -0.607063     0.945010     3.808942
 H    -0.160328     0.490406     4.693544
 C    -0.907248     2.308169     3.806857
 H    -0.685883     2.904989     4.695111
