  56
scf done:    -1686.611222
 C     1.389188    -3.588333    -0.489326
 H     1.002910    -4.310341    -1.227317
 H     2.289624    -3.166630    -0.971327
 C     1.777032    -4.329467     0.784843
 H     2.556268    -5.095774     0.607983
 H     2.164909    -3.653495     1.565010
 H     0.911843    -4.847205     1.228439
Rh    -0.067764    -2.086288    -0.061244
 C     1.590909     1.126667     0.553355
 C     3.325927    -1.130603     0.666998
 C     2.249616    -0.334340    -1.860206
 C    -1.980283     0.754380    -0.848638
 C    -3.408117    -1.254129     0.619138
 C    -1.619036     0.384031     2.028431
 P    -1.716387    -0.561426     0.454640
 P     1.754758    -0.609423    -0.118882
 C    -1.278671    -3.420576    -0.439933
 O    -2.011493    -4.256647    -0.737927
 H     1.447944     0.999898     1.637822
 H     0.646621     1.522075     0.152177
 C     2.717409     2.069558     0.266835
 C     2.721521     2.843242    -0.901713
 H     1.875908     2.776542    -1.591959
 C     3.803674     2.188435     1.143700
 H     3.811005     1.608151     2.070301
 C     3.782068     3.698239    -1.191774
 H     3.762866     4.294037    -2.107518
 C     4.866320     3.042469     0.856152
 H     5.701912     3.121803     1.555755
 C     4.861594     3.798055    -0.315147
 H     5.693573     4.469002    -0.540792
 H     3.188213    -1.183201     1.756652
 H     3.594588    -2.132288     0.307733
 H     4.138024    -0.426659     0.433975
 H     3.139764     0.306850    -1.942603
 H     2.450509    -1.315822    -2.311715
 H     1.411733     0.121215    -2.407152
 H    -2.283512     0.190890    -1.744840
 H    -0.987346     1.172011    -1.072271
 C    -2.956552     1.837489    -0.516648
 C    -2.536118     2.999668     0.144832
 H    -1.476057     3.128513     0.382196
 C    -4.317565     1.706476    -0.823267
 H    -4.663359     0.816272    -1.355488
 C    -3.445448     3.993683     0.497657
 H    -3.094044     4.892879     1.009514
 C    -5.230131     2.698754    -0.470736
 H    -6.286317     2.577444    -0.723378
 C    -4.798337     3.845091     0.194445
 H    -5.512900     4.624327     0.469275
 H    -3.690001    -1.765698    -0.312352
 H    -3.395727    -2.004008     1.423535
 H    -4.151940    -0.478565     0.855159
 H    -1.556684    -0.346936     2.848015
 H    -0.714574     1.004473     2.057971
 H    -2.499975     1.026362     2.176236
