 104
scf done:    -2315.124694
 C     0.844479     0.920448    -3.291576
 H     0.443189     1.817085    -3.792931
 H     1.928915     1.107133    -3.203934
 C     0.613582    -0.305022    -4.166660
 H    -0.458585    -0.471884    -4.357471
 H     1.109872    -0.220631    -5.152763
 H     0.997229    -1.228123    -3.697551
Rh    -0.122046     0.482401    -1.450001
 C     2.906953     2.030960    -0.808227
 C     2.366170     0.177480     1.252620
 C     3.165707    -0.814955    -1.330319
 C    -1.241099    -0.113773     2.003921
 C    -3.176472    -0.505835    -0.037348
 C    -1.034326    -2.397842     0.140584
 P    -1.345979    -0.572544     0.201823
 P     2.025488     0.413334    -0.552725
 C    -1.572173     1.396950    -2.121746
 O    -2.416215     2.104482    -2.464973
 H     3.012365     2.161724    -1.894759
 H     3.916917     1.947129    -0.379137
 C     2.172869     3.191685    -0.206011
 C     2.516110     3.682973     1.058747
 H     3.343121     3.223572     1.607750
 C     1.112775     3.796571    -0.894959
 H     0.821880     3.405365    -1.871807
 C     1.828752     4.758535     1.619823
 H     2.113561     5.130051     2.607063
 C     0.432395     4.877462    -0.340696
 H    -0.386270     5.339927    -0.897477
 C     0.789342     5.364253     0.917251
 H     0.257524     6.214750     1.350735
 H     1.696899     0.875543     1.783340
 H     3.391425     0.527011     1.454245
 C     2.175417    -1.245535     1.752183
 H     1.196588    -1.617935     1.415811
 H     2.922643    -1.911031     1.283985
 C     2.260153    -1.415581     3.270983
 H     1.518821    -0.730708     3.724906
 C     1.879756    -2.839578     3.659708
 H     0.869705    -3.097109     3.303105
 H     1.897153    -2.978551     4.751527
 H     2.582270    -3.567306     3.220018
 C     3.634228    -1.045097     3.817034
 H     3.679501    -1.186286     4.907789
 H     3.892403     0.004401     3.610736
 H     4.416953    -1.678938     3.366437
 H     3.040873    -0.698313    -2.419058
 H     2.721130    -1.794161    -1.088073
 C     4.637717    -0.764308    -0.947232
 H     5.077036     0.173894    -1.324699
 H     4.751556    -0.731125     0.151723
 C     5.468412    -1.938709    -1.476186
 H     5.286423    -2.011062    -2.564908
 C     6.954628    -1.674845    -1.263641
 H     7.274410    -0.744782    -1.758782
 H     7.570411    -2.496634    -1.660535
 H     7.184705    -1.576679    -0.189308
 C     5.059822    -3.263351    -0.840264
 H     5.659480    -4.096327    -1.238106
 H     4.002233    -3.507165    -1.021800
 H     5.215231    -3.234818     0.251896
 H    -0.176836    -0.042068     2.266619
 H    -1.683703    -0.913821     2.615678
 C    -1.949967     1.184520     2.259028
 C    -3.124088     1.208981     3.020760
 H    -3.493284     0.279703     3.464336
 C    -1.490425     2.381886     1.693382
 H    -0.589766     2.382483     1.071873
 C    -3.826262     2.396251     3.218440
 H    -4.740152     2.393742     3.817654
 C    -2.194705     3.567705     1.888799
 H    -1.822285     4.487446     1.435104
 C    -3.363285     3.580873     2.649407
 H    -3.912819     4.513660     2.796980
 H    -3.430826     0.566819    -0.038589
 H    -3.679534    -0.941596     0.841238
 C    -3.636404    -1.164113    -1.331564
 H    -2.894791    -0.961653    -2.124952
 H    -3.656920    -2.262537    -1.206964
 C    -5.008010    -0.695933    -1.821477
 H    -4.935749     0.395970    -1.981094
 C    -5.341486    -1.343185    -3.159863
 H    -4.565771    -1.129865    -3.911677
 H    -6.302372    -0.978349    -3.554698
 H    -5.417689    -2.439186    -3.059178
 C    -6.105855    -0.952955    -0.795571
 H    -7.085893    -0.619793    -1.170962
 H    -5.917834    -0.422959     0.150430
 H    -6.185656    -2.030148    -0.568570
 H     0.054995    -2.554530     0.167068
 H    -1.335615    -2.670304    -0.883608
 C    -1.728120    -3.273203     1.172025
 H    -1.358829    -3.012927     2.178514
 H    -2.812877    -3.062297     1.184555
 C    -1.526054    -4.777338     0.961390
 H    -0.436269    -4.956683     0.889430
 C    -2.049628    -5.555713     2.162913
 H    -1.553713    -5.241107     3.094679
 H    -1.886563    -6.637952     2.043727
 H    -3.133237    -5.395303     2.291199
 C    -2.171652    -5.270520    -0.328893
 H    -2.012808    -6.351408    -0.463992
 H    -1.766644    -4.765916    -1.218712
 H    -3.260505    -5.094031    -0.311276
