 110
scf done:    -2917.583167
 C    -1.984379     1.619406    -2.765474
 H    -1.972639     1.415015    -3.848925
 H    -2.933388     1.191076    -2.404244
 C    -1.980844     3.122588    -2.521599
 H    -2.861183     3.621033    -2.971812
 H    -1.993371     3.367161    -1.446919
 H    -1.086450     3.602638    -2.952647
Rh    -0.287816     0.776737    -1.789231
 C    -2.826913     1.479437     0.450203
 C    -3.066383    -1.219288    -0.789349
 C    -1.157262    -0.711743     1.337012
 C     1.932202    -1.529950    -0.193848
 C     3.186046     0.647718    -1.592206
 C     1.898647     1.149085     0.973839
 P     1.643944     0.236550    -0.613765
 P    -1.848529     0.054592    -0.198396
 C     0.554541     0.968815    -3.417796
 O     1.018078     0.995508    -4.472772
 C    -2.145122     2.343586     1.314284
 H    -1.113650     2.120557     1.592494
 C    -4.137072     1.832646     0.064764
 O    -4.784339     1.001147    -0.778982
 C    -6.037198     1.363160    -1.286792
 H    -6.797988     1.439906    -0.490432
 H    -6.332368     0.566700    -1.981686
 H    -5.992078     2.319542    -1.835589
 C    -2.725622     3.506529     1.811672
 H    -2.152426     4.153366     2.477337
 C    -4.724185     3.003120     0.559716
 H    -5.737205     3.274103     0.263138
 C    -4.021965     3.832622     1.430271
 H    -4.497297     4.743184     1.802558
 H    -3.848466    -1.297380    -0.022267
 H    -3.532051    -0.778726    -1.677805
 C    -2.501299    -2.580103    -1.090247
 C    -2.526525    -3.567097    -0.097319
 H    -2.921437    -3.314622     0.888811
 C    -2.033698    -2.916108    -2.379922
 C    -2.016742    -1.910493    -3.489044
 H    -1.418211    -1.023761    -3.207795
 H    -3.030630    -1.543624    -3.719522
 H    -1.596663    -2.339343    -4.409080
 C    -2.083458    -4.863416    -0.345512
 H    -2.116286    -5.611039     0.450527
 C    -1.605834    -4.227958    -2.615556
 H    -1.256485    -4.490915    -3.618119
 C    -1.623858    -5.197773    -1.615796
 H    -1.286094    -6.214271    -1.833512
 H    -0.417164    -1.423416     0.945310
 H    -0.561454     0.085929     1.809399
 C    -2.030291    -1.381520     2.362940
 C    -3.304756    -0.901413     2.681118
 H    -3.679280    -0.009985     2.175658
 C    -1.538331    -2.521136     3.038645
 C    -0.175327    -3.075139     2.741092
 H     0.616747    -2.324559     2.891153
 H    -0.092219    -3.414544     1.694943
 H     0.049481    -3.934421     3.387728
 C    -4.104100    -1.537486     3.628548
 H    -5.097988    -1.143166     3.852861
 C    -2.354074    -3.146686     3.986720
 H    -1.975254    -4.032824     4.503773
 C    -3.629439    -2.670223     4.282244
 H    -4.246534    -3.182013     5.024598
 C     1.319790    -2.441381    -1.061881
 H     0.656389    -2.042341    -1.835861
 C     2.758485    -2.036178     0.834481
 O     3.314556    -1.148564     1.681401
 C     4.236574    -1.584923     2.641372
 H     3.767521    -2.252423     3.385472
 H     4.603740    -0.683758     3.148489
 H     5.092160    -2.097837     2.172736
 C     1.528127    -3.814604    -0.952333
 H     1.031233    -4.495683    -1.642500
 C     2.963112    -3.415387     0.951326
 H     3.601020    -3.810363     1.741709
 C     2.354799    -4.294210     0.057317
 H     2.526968    -5.368037     0.164662
 H     3.070964     0.067831    -2.520217
 H     3.075643     1.706901    -1.868184
 C     4.501170     0.354221    -0.942633
 C     5.017542    -0.946068    -1.017617
 H     4.465865    -1.700159    -1.584456
 C     5.227672     1.343707    -0.245021
 C     4.791003     2.781694    -0.226861
 H     3.778415     2.923969     0.177353
 H     4.782842     3.204108    -1.245309
 H     5.478440     3.390702     0.376150
 C     6.206891    -1.293845    -0.385069
 H     6.587071    -2.315438    -0.462065
 C     6.417268     0.973371     0.393871
 H     6.982354     1.737820     0.934723
 C     6.905739    -0.329686     0.337742
 H     7.841349    -0.584450     0.841770
 H     1.418833     0.536315     1.751122
 H     2.968547     1.094210     1.226176
 C     1.406660     2.569572     1.053195
 C     0.925173     3.275106    -0.053948
 H     0.849338     2.767270    -1.025702
 C     1.449547     3.214891     2.309906
 C     1.965715     2.496465     3.522005
 H     2.998762     2.142178     3.372946
 H     1.361976     1.603441     3.755039
 H     1.953823     3.148344     4.406076
 C     0.482487     4.591011     0.061545
 H     0.095747     5.108169    -0.818977
 C     1.002627     4.535933     2.409349
 H     1.035628     5.032058     3.383577
 C     0.521890     5.226341     1.297913
 H     0.175351     6.257304     1.402356
