 106
scf done:    -2465.511073
 C     1.373780    -3.473078     1.393124
 H     1.070997    -4.529536     1.332892
 H     2.412900    -3.440707     1.033505
 C     1.284359    -2.992135     2.835182
 H     1.896268    -3.610607     3.519544
 H     1.625440    -1.948745     2.955058
 H     0.250328    -3.034278     3.217487
Rh     0.051996    -2.199181     0.357394
 O     1.563779     0.615857     1.388232
 C     3.465319    -1.078571     0.446747
 C     1.726055     0.241161    -1.401219
 O    -1.289734     0.743958    -0.757385
 C    -3.087817    -1.280702    -1.128092
 C    -2.490320    -0.284266     1.492711
 P    -1.671202    -0.764619    -0.078985
 P     1.708650    -0.601430     0.227658
 C    -0.724786    -3.708072    -0.369511
 O    -1.100353    -4.619509    -0.968204
 C     1.940346     1.918619     1.255706
 C     1.118602     2.802998     0.553321
 H     0.202473     2.414651     0.108628
 C     3.117514     2.370803     1.851708
 H     3.734431     1.670503     2.417659
 C     1.477422     4.142636     0.395039
 C     0.615598     5.069915    -0.412371
 H     1.068287     5.261329    -1.399659
 H    -0.382764     4.643043    -0.584899
 H     0.497889     6.045474     0.083328
 C     3.474821     3.710689     1.706038
 H     4.396432     4.075024     2.166728
 C     2.671746     4.587117     0.979538
 H     2.969886     5.633172     0.869936
 H     3.540177    -1.548765     1.441101
 H     4.069503    -0.158043     0.474768
 C     3.936560    -2.038873    -0.641458
 H     3.136444    -2.770689    -0.848707
 H     4.092469    -1.485761    -1.584221
 C     5.220029    -2.797522    -0.297890
 H     5.027672    -3.355482     0.638137
 C     5.542576    -3.811876    -1.388216
 H     4.708064    -4.513214    -1.542651
 H     6.437693    -4.401616    -1.136762
 H     5.736469    -3.306561    -2.349340
 C     6.395919    -1.858608    -0.054162
 H     7.310865    -2.421635     0.186940
 H     6.205942    -1.165553     0.779340
 H     6.604973    -1.252833    -0.952412
 H     0.752317     0.749367    -1.462523
 H     1.652935    -0.598264    -2.113060
 C     2.874667     1.186448    -1.750926
 H     3.226342     1.720365    -0.856255
 H     3.742810     0.612138    -2.119221
 C     2.485275     2.233714    -2.797432
 H     1.592578     2.757222    -2.406481
 C     3.593162     3.266653    -2.957713
 H     3.816475     3.758640    -1.997790
 H     3.313530     4.046826    -3.683116
 H     4.523251     2.796319    -3.318874
 C     2.109836     1.602640    -4.132912
 H     1.815053     2.368849    -4.866748
 H     1.268200     0.900465    -4.032408
 H     2.962494     1.045696    -4.557173
 C    -2.161613     1.749571    -1.058113
 C    -2.518307     2.683232    -0.084374
 H    -2.127485     2.567757     0.927869
 C    -2.623381     1.889383    -2.369464
 H    -2.318913     1.159190    -3.121476
 C    -3.345456     3.767899    -0.398465
 C    -3.685749     4.780719     0.655869
 H    -3.967462     4.295300     1.602382
 H    -2.818583     5.426964     0.870982
 H    -4.514627     5.429559     0.340834
 C    -3.450331     2.962807    -2.685678
 H    -3.816452     3.078453    -3.708664
 C    -3.811706     3.893016    -1.711156
 H    -4.461251     4.731632    -1.974179
 H    -2.644830    -1.588060    -2.090702
 H    -3.727551    -0.406344    -1.327352
 C    -3.886345    -2.430516    -0.518486
 H    -3.211476    -3.101078     0.039799
 H    -4.599144    -2.030819     0.224409
 C    -4.651236    -3.270286    -1.543263
 H    -3.904308    -3.660677    -2.259559
 C    -5.309381    -4.464401    -0.863670
 H    -4.563975    -5.087258    -0.345606
 H    -5.832851    -5.101897    -1.592788
 H    -6.051390    -4.134132    -0.117307
 C    -5.669455    -2.442603    -2.318868
 H    -6.204220    -3.060587    -3.056577
 H    -5.198169    -1.610849    -2.864576
 H    -6.422696    -2.011077    -1.637827
 H    -3.004577    -1.191889     1.850870
 H    -3.272408     0.461390     1.272950
 C    -1.486289     0.195465     2.532362
 H    -0.762473    -0.618322     2.708070
 H    -0.880994     1.022931     2.124820
 C    -2.087893     0.628975     3.869377
 H    -2.732563    -0.194762     4.230584
 C    -0.976550     0.842763     4.890914
 H    -0.381522    -0.072598     5.031984
 H    -1.379672     1.141941     5.870959
 H    -0.287324     1.634889     4.553889
 C    -2.951251     1.879961     3.740221
 H    -3.403108     2.153251     4.706333
 H    -3.772604     1.749922     3.018499
 H    -2.341608     2.737768     3.408150
