 100
scf done:    -2462.619854
 C     2.210081    -1.671360    -2.242176
 H     2.471449    -1.381923    -3.274215
 H     3.086059    -1.390906    -1.635527
 C     1.996434    -3.177377    -2.168915
 H     1.211364    -3.518451    -2.862511
 H     2.917147    -3.740164    -2.415658
 H     1.688305    -3.506960    -1.161600
Rh     0.458532    -0.691142    -1.554850
 C     2.275755    -0.399220     1.525571
 C     3.352227     1.118295    -0.715595
 C     1.050085     2.032693     0.612226
 C    -2.235365     1.420328    -0.085766
 C    -3.018082    -1.108924    -1.097834
 C    -1.283839    -1.018109     1.193321
 P    -1.532411    -0.247779    -0.450478
 P     1.782769     0.471995    -0.017632
 C    -0.238007    -1.119019    -3.207477
 O    -0.597462    -1.270962    -4.291992
 H     2.892375     0.260221     2.158916
 H     1.335532    -0.579453     2.071531
 C     2.968841    -1.727710     1.267198
 H     2.323700    -2.342364     0.618712
 H     3.901426    -1.566474     0.699530
 C     3.269218    -2.487374     2.550236
 H     2.336302    -2.579630     3.134424
 H     3.960667    -1.897496     3.179770
 C     3.851669    -3.872986     2.312892
 H     3.158101    -4.447488     1.673522
 H     4.784005    -3.781127     1.728545
 C     4.121648    -4.640504     3.596778
 H     4.537387    -5.639531     3.396089
 H     3.196898    -4.777783     4.181349
 H     4.838376    -4.105100     4.240322
 C     3.438602     1.317192    -2.097235
 H     2.595902     1.010247    -2.724379
 C     4.436237     1.492560     0.084775
 H     4.393677     1.365902     1.169215
 C     4.579748     1.879444    -2.661187
 H     4.625301     2.029163    -3.743587
 C     5.580107     2.042062    -0.486588
 H     6.418386     2.326192     0.155952
 C     5.673770     2.245272    -1.868795
 C     6.920796     2.808307    -2.484658
 H     7.458606     3.462483    -1.783240
 H     7.612910     2.000246    -2.775631
 H     6.696293     3.386685    -3.392611
 C     0.709858     2.248976     1.949817
 H     0.936806     1.498617     2.708276
 C     0.745077     3.033174    -0.322479
 H     1.002085     2.881297    -1.374380
 C     0.050197     3.418112     2.333788
 H    -0.217309     3.560715     3.384781
 C     0.100975     4.199194     0.068134
 H    -0.130366     4.961905    -0.680762
 C    -0.275912     4.408130     1.403283
 C    -1.029175     5.641495     1.805184
 H    -0.617364     6.540403     1.322467
 H    -2.087887     5.567422     1.504636
 H    -1.004299     5.794331     2.893368
 H    -1.518595     1.911595     0.588470
 H    -2.163526     1.978062    -1.033625
 C    -3.649099     1.491273     0.473600
 H    -4.369388     1.165233    -0.294711
 H    -3.771690     0.778868     1.307548
 C    -3.996094     2.894773     0.952287
 H    -3.846002     3.609727     0.122292
 H    -3.274762     3.197400     1.733968
 C    -5.412309     3.033703     1.490846
 H    -6.129681     2.738058     0.705190
 H    -5.558502     2.311273     2.313443
 C    -5.732886     4.437581     1.978084
 H    -6.760277     4.512014     2.365633
 H    -5.630436     5.174949     1.165340
 H    -5.049583     4.744974     2.786632
 C    -3.418007    -0.835157    -2.412420
 H    -2.819003    -0.167209    -3.036662
 C    -3.802370    -1.973689    -0.329941
 H    -3.519664    -2.195842     0.701459
 C    -4.569995    -1.408042    -2.938099
 H    -4.861957    -1.177307    -3.966519
 C    -4.949239    -2.555318    -0.867978
 H    -5.546193    -3.232183    -0.250027
 C    -5.354718    -2.285841    -2.178241
 C    -6.572651    -2.934793    -2.767286
 H    -7.243737    -3.318978    -1.985952
 H    -7.141186    -2.230837    -3.393296
 H    -6.292169    -3.785822    -3.410161
 C    -1.433137    -0.353133     2.412554
 H    -1.807309     0.671232     2.440825
 C    -0.779836    -2.330717     1.208655
 H    -0.634642    -2.857047     0.259917
 C    -1.084211    -0.979484     3.611168
 H    -1.203138    -0.436184     4.552883
 C    -0.447009    -2.951828     2.404906
 H    -0.055713    -3.973142     2.388597
 C    -0.587467    -2.285043     3.632158
 C    -0.202762    -2.958965     4.915954
 H    -0.748718    -3.906216     5.047830
 H     0.872102    -3.203547     4.928637
 H    -0.412629    -2.322045     5.786345
