 104
scf done:    -2763.418017
 C     0.442387    -3.687473     0.469813
 H     0.417811    -4.453349    -0.320886
 H     1.501209    -3.622811     0.772264
 C    -0.425403    -4.112702     1.647144
 H    -1.479297    -4.243879     1.353076
 H    -0.088204    -5.070214     2.087202
 H    -0.416979    -3.370485     2.463920
Rh    -0.368295    -1.834253    -0.205919
 C     1.623479    -0.939714     2.535508
 O     2.966457    -1.544080     0.420986
 O     1.670462     0.667948     0.274157
 C    -0.865856     1.360915    -1.794824
 O    -3.000604     0.041042    -1.001169
 O    -1.492314     1.002819     0.868643
 P    -1.395863     0.141223    -0.554312
 P     1.463419    -0.928012     0.726036
 C    -1.403501    -2.839834    -1.416512
 O    -1.924357    -3.438623    -2.243650
 H     2.617478    -0.555854     2.814774
 H     1.605406    -2.009711     2.800288
 C     0.482287    -0.177848     3.194601
 H     0.489859     0.866979     2.843272
 H    -0.480314    -0.586821     2.839704
 C     0.496921    -0.185554     4.723342
 H     1.473041     0.220326     5.052116
 C    -0.597347     0.735596     5.251027
 H    -0.485323     1.759170     4.860945
 H    -0.586489     0.786457     6.350679
 H    -1.592331     0.373354     4.942939
 C     0.354361    -1.590774     5.296660
 H     0.350592    -1.571331     6.397326
 H     1.173477    -2.255679     4.983624
 H    -0.592655    -2.050941     4.967708
 C     3.517230    -1.779539    -0.816338
 C     2.767670    -2.242965    -1.893924
 H     1.695071    -2.417633    -1.759434
 C     4.896559    -1.540087    -0.920538
 C     5.669022    -1.056877     0.267397
 H     5.282766    -0.089624     0.624738
 H     5.582780    -1.762593     1.108162
 H     6.732557    -0.935387     0.021434
 C     3.393702    -2.454096    -3.121016
 H     2.805495    -2.813049    -3.968756
 C     5.495254    -1.764461    -2.162834
 H     6.568104    -1.580346    -2.266918
 C     4.758024    -2.211527    -3.259869
 H     5.253153    -2.375971    -4.219539
 C     2.836215     1.392240     0.338996
 C     3.285845     1.882336     1.567551
 H     2.710172     1.669108     2.469069
 C     3.509518     1.688993    -0.856619
 C     3.013815     1.217088    -2.190342
 H     2.086429     0.641549    -2.097152
 H     2.826079     2.073545    -2.857110
 H     3.758859     0.570740    -2.679165
 C     4.445506     2.648755     1.629589
 H     4.795460     3.026611     2.592748
 C     4.672669     2.463051    -0.761652
 H     5.216843     2.698079    -1.680563
 C     5.147006     2.933728     0.459068
 H     6.059995     3.531974     0.496199
 H    -0.547349     0.745627    -2.653772
 H     0.058372     1.783457    -1.372599
 C    -1.851145     2.435652    -2.233222
 H    -2.731893     1.946359    -2.676831
 H    -2.219753     2.995779    -1.358441
 C    -1.261604     3.431520    -3.235881
 H    -0.866882     2.852134    -4.092456
 C    -2.358134     4.353708    -3.756501
 H    -3.177464     3.783888    -4.221897
 H    -1.968571     5.059602    -4.506269
 H    -2.789542     4.946321    -2.932572
 C    -0.113250     4.240633    -2.641486
 H     0.286528     4.956696    -3.376069
 H     0.723513     3.604482    -2.315028
 H    -0.454839     4.811493    -1.762326
 C    -3.816442    -0.966063    -0.557726
 C    -3.704613    -1.495780     0.728259
 H    -2.953911    -1.096873     1.413216
 C    -4.770506    -1.445536    -1.467007
 C    -4.836975    -0.874831    -2.849562
 H    -4.999009     0.214050    -2.827454
 H    -3.889820    -1.042912    -3.386934
 H    -5.647585    -1.336750    -3.429005
 C    -4.550134    -2.530947     1.122789
 H    -4.455013    -2.950384     2.126825
 C    -5.611441    -2.475860    -1.040003
 H    -6.357845    -2.865329    -1.737552
 C    -5.506776    -3.022121     0.238833
 H    -6.172666    -3.832924     0.541930
 C    -1.588603     2.360613     1.046780
 C    -0.420808     3.121983     1.051344
 H     0.530607     2.618764     0.883051
 C    -2.844332     2.943355     1.283517
 C    -4.089667     2.112727     1.296569
 H    -4.331017     1.743956     0.287970
 H    -3.969734     1.222936     1.931882
 H    -4.945181     2.693689     1.666162
 C    -0.487436     4.497488     1.258063
 H     0.430748     5.089231     1.251710
 C    -2.879807     4.325926     1.492436
 H    -3.847697     4.800284     1.676563
 C    -1.722721     5.103765     1.473064
 H    -1.788076     6.181666     1.637051
