  62
scf done:    -2137.688148
 C     0.077152    -3.462848    -0.816643
 H    -0.751608    -4.185971    -0.853707
 H     0.447979    -3.343362    -1.844542
 C     1.184019    -3.966425     0.097894
 H     1.544892    -4.967644    -0.206886
 H     2.055030    -3.292451     0.085936
 H     0.844953    -4.061522     1.144410
Rh    -0.470114    -1.624212     0.070919
 C     2.206748     0.715735    -0.563973
 O     2.160945    -1.592082    -1.983189
 O     0.471085     0.294468    -2.440383
 C    -1.354244     1.758667     0.312031
 O    -2.170892     0.279823     2.318691
 O     0.334623     0.778521     2.190178
 P    -0.918850     0.259350     1.248630
 P     1.115160    -0.591785    -1.212715
 C    -2.194902    -2.290847     0.122714
 O    -3.292728    -2.609835    -0.030847
 C     2.331090     1.979771    -1.138396
 H     1.793669     2.183444    -2.066196
 C     2.864703     0.438256     0.649067
 O     2.723698    -0.816424     1.105847
 C     3.057109    -1.119263     2.433152
 H     4.143884    -1.040052     2.609020
 H     2.744245    -2.157719     2.598052
 H     2.515862    -0.461739     3.132263
 C     3.089215     2.971644    -0.516082
 H     3.181486     3.959688    -0.971885
 C     3.599763     1.437278     1.293449
 H     4.093140     1.238018     2.245175
 C     3.709148     2.695771     0.700740
 H     4.293629     3.470400     1.203879
 C     3.157780    -1.100365    -2.848242
 H     2.723767    -0.480303    -3.649783
 H     3.903877    -0.498325    -2.302527
 H     3.657918    -1.969530    -3.297285
 C    -0.757704    -0.080299    -3.027803
 H    -0.604158    -0.843738    -3.808184
 H    -1.444781    -0.483825    -2.264720
 H    -1.192693     0.821593    -3.480974
 C    -0.489628     2.848559     0.226426
 H     0.435269     2.841885     0.805175
 C    -2.514653     1.738370    -0.489855
 O    -3.273223     0.633857    -0.393806
 C    -4.374845     0.462507    -1.241774
 H    -5.161198     1.211250    -1.043600
 H    -4.765986    -0.541001    -1.034921
 H    -4.080573     0.522052    -2.304202
 C    -0.771301     3.925337    -0.614583
 H    -0.081161     4.769477    -0.670130
 C    -2.801265     2.815190    -1.333352
 H    -3.699805     2.811873    -1.950828
 C    -1.928061     3.903072    -1.386118
 H    -2.161251     4.739758    -2.049388
 C    -2.392101    -0.824622     3.165422
 H    -2.044533    -1.764520     2.703114
 H    -1.871238    -0.689885     4.129030
 H    -3.472462    -0.899820     3.353466
 C     0.160095     1.733846     3.216125
 H    -0.669783     2.426649     3.007689
 H    -0.040598     1.232649     4.177343
 H     1.095959     2.306120     3.302007
