  98
scf done:    -2760.418834
 C     1.393989    -2.685665    -1.441238
 H     1.367796    -3.108421    -2.457993
 H     2.432129    -2.371075    -1.269534
 C     1.008698    -3.746880    -0.421919
 H    -0.017337    -4.121552    -0.569991
 H     1.680445    -4.625883    -0.476111
 H     1.076511    -3.371544     0.613590
Rh    -0.020221    -1.137186    -1.148848
 C     2.159012    -0.716471     1.470345
 C     3.259030     0.151523    -1.200428
 C     1.591513     1.866867     0.227595
 C    -1.910478     1.766923    -0.189261
 C    -3.542195    -0.453811    -1.140657
 C    -2.314799    -0.748310     1.379869
 P    -1.930799    -0.065411    -0.292183
 P     1.737819     0.056697    -0.143940
 C    -0.819386    -1.709566    -2.706052
 O    -1.221438    -1.943317    -3.760901
 C     1.288579    -0.478601     2.539927
 H     0.445929     0.201482     2.393451
 C     3.182055    -1.674595     1.643423
 O     3.967275    -1.920655     0.582567
 C     4.974356    -2.887921     0.656263
 H     5.729275    -2.635614     1.421451
 H     5.456440    -2.902486    -0.329154
 H     4.561515    -3.888664     0.871883
 C     1.449591    -1.110845     3.771130
 H     0.750099    -0.904355     4.583283
 C     3.341356    -2.315778     2.877313
 H     4.135868    -3.049492     3.013206
 C     2.483255    -2.026092     3.936632
 H     2.622352    -2.536827     4.892510
 C     3.108806    -0.270667    -2.526165
 H     2.139220    -0.675438    -2.829207
 C     4.491794     0.698926    -0.782498
 C     4.749425     1.234629     0.594297
 H     4.233731     0.663829     1.375810
 H     4.400582     2.276194     0.677003
 H     5.826362     1.224374     0.814851
 C     4.152184    -0.182357    -3.442662
 H     4.004072    -0.521383    -4.470466
 C     5.532398     0.765625    -1.717561
 H     6.494563     1.174838    -1.396332
 C     5.376702     0.334406    -3.031935
 H     6.212820     0.405957    -3.732185
 C     1.853988     2.403981     1.493638
 H     2.096353     1.739992     2.323532
 C     1.312876     2.743608    -0.847064
 C     1.052663     2.266403    -2.242870
 H     0.505925     1.307059    -2.250762
 H     1.999160     2.100021    -2.781027
 H     0.470697     3.011365    -2.801621
 C     1.855900     3.778216     1.715014
 H     2.080644     4.166721     2.711660
 C     1.327062     4.122198    -0.601388
 H     1.112392     4.798225    -1.432860
 C     1.598140     4.645154     0.657224
 H     1.602888     5.726948     0.811525
 C    -2.046779     2.488652    -1.380489
 H    -2.147838     1.940902    -2.320443
 C    -1.659850     2.489773     0.996452
 O    -1.392292     1.771173     2.103263
 C    -1.314734     2.406320     3.348506
 H    -0.455298     3.095868     3.398901
 H    -1.184382     1.609364     4.092054
 H    -2.241520     2.960100     3.577774
 C    -2.065996     3.881003    -1.396425
 H    -2.194020     4.414940    -2.340180
 C    -1.698814     3.887190     0.988731
 H    -1.526869     4.443985     1.909204
 C    -1.917162     4.576072    -0.200971
 H    -1.936564     5.668302    -0.190658
 C    -4.399468     0.548982    -1.613764
 H    -4.149643     1.596521    -1.450371
 C    -3.931878    -1.807489    -1.296371
 C    -3.175218    -2.971103    -0.726750
 H    -3.419798    -3.108009     0.338656
 H    -2.085889    -2.833203    -0.789813
 H    -3.437429    -3.896993    -1.257359
 C    -5.589474     0.252068    -2.270032
 H    -6.228602     1.063974    -2.624912
 C    -5.129205    -2.081194    -1.971328
 H    -5.418274    -3.127382    -2.103328
 C    -5.953164    -1.076256    -2.463691
 H    -6.877921    -1.331291    -2.986708
 C    -1.448651    -1.750324     1.824830
 H    -0.594203    -2.019910     1.196713
 C    -3.444137    -0.408781     2.158070
 C    -4.461190     0.611373     1.741591
 H    -5.167992     0.182457     1.013726
 H    -4.007851     1.486696     1.258904
 H    -5.040963     0.955849     2.609679
 C    -1.657388    -2.417639     3.028771
 H    -0.957890    -3.192935     3.348088
 C    -3.630101    -1.081690     3.370863
 H    -4.495729    -0.818659     3.985579
 C    -2.755705    -2.075439     3.809230
 H    -2.941064    -2.582841     4.759378
