  90
scf done:    -2904.088551
 C    -1.655972     2.069086    -2.524906
 H    -2.104959     1.613709    -3.422578
 H    -2.508539     2.324738    -1.874182
 C    -0.900480     3.342290    -2.880991
 H    -0.089412     3.157807    -3.603503
 H    -1.566665     4.104504    -3.327948
 H    -0.440150     3.807196    -1.993296
Rh    -0.300322     0.712509    -1.600587
 C    -3.606267     0.144094    -0.598207
 O    -1.634007    -0.616173     1.116401
 O    -2.329210     1.873742     0.834166
 C     1.270936    -2.024123     0.172937
 O     2.719773    -0.402111    -1.476285
 O     1.939874     0.459950     0.828562
 P     1.368170    -0.344108    -0.504573
 P    -1.911893     0.526613    -0.051536
 C     0.368710     0.357962    -3.318536
 O     0.665034     0.020092    -4.373029
 C    -4.648817     1.061126    -0.450713
 H    -4.441599     2.010463     0.043984
 C    -3.860734    -1.084517    -1.237882
 O    -2.816366    -1.925546    -1.362906
 C    -2.989357    -3.127940    -2.062123
 H    -3.682944    -3.805989    -1.535881
 H    -2.001717    -3.600780    -2.122247
 H    -3.357177    -2.951756    -3.086690
 C    -5.930308     0.773282    -0.914945
 H    -6.733652     1.501642    -0.789878
 C    -5.147411    -1.377794    -1.698628
 H    -5.358263    -2.329885    -2.184704
 C    -6.172497    -0.448073    -1.534234
 H    -7.173226    -0.690129    -1.900161
 C    -2.574240    -1.213608     1.914686
 C    -3.563228    -0.482697     2.575494
 H    -3.609163     0.599594     2.452432
 C    -2.488055    -2.596995     2.072071
 H    -1.695933    -3.133407     1.548630
 C    -4.478403    -1.153832     3.384548
 H    -5.255425    -0.582451     3.897971
 C    -3.405042    -3.252806     2.888629
 H    -3.335066    -4.336441     3.012169
 C    -4.406778    -2.536510     3.544265
 H    -5.127141    -3.054408     4.181288
 C    -1.381944     2.719739     1.355541
 C    -1.339341     4.033821     0.892025
 H    -2.019016     4.334943     0.093010
 C    -0.523958     2.288246     2.365724
 H    -0.567082     1.251582     2.703569
 C    -0.435150     4.928016     1.458605
 H    -0.397779     5.958158     1.096428
 C     0.378731     3.193023     2.921287
 H     1.058011     2.858126     3.707620
 C     0.424717     4.511733     2.474766
 H     1.141260     5.211444     2.908773
 C     0.253706    -2.802690    -0.382590
 H    -0.441609    -2.311100    -1.069298
 C     2.167173    -2.611905     1.095457
 O     3.138364    -1.843147     1.597754
 C     4.150644    -2.419264     2.376085
 H     3.760190    -2.808378     3.332503
 H     4.872246    -1.619038     2.580897
 H     4.666265    -3.227417     1.831014
 C     0.111776    -4.150597    -0.059342
 H    -0.687285    -4.747653    -0.502940
 C     2.013176    -3.964301     1.428499
 H     2.693384    -4.434368     2.138353
 C     0.996350    -4.721205     0.851097
 H     0.899701    -5.775187     1.123714
 C     3.911872    -1.004180    -1.175807
 C     4.096973    -2.352723    -1.479778
 H     3.276898    -2.912992    -1.932137
 C     4.943379    -0.252731    -0.613214
 H     4.773506     0.802645    -0.393613
 C     5.321496    -2.956121    -1.198776
 H     5.467554    -4.012638    -1.436767
 C     6.163823    -0.864963    -0.340524
 H     6.974021    -0.276226     0.096952
 C     6.357020    -2.217421    -0.626488
 H     7.317401    -2.692287    -0.413036
 C     2.433855     1.731437     0.792520
 C     2.042820     2.678357    -0.154601
 H     1.293915     2.411701    -0.912970
 C     3.375221     2.059214     1.770599
 H     3.660602     1.290976     2.491356
 C     2.599278     3.953952    -0.116147
 H     2.282813     4.691972    -0.856881
 C     3.923166     3.338497     1.799500
 H     4.660118     3.591006     2.566052
 C     3.540654     4.291670     0.855035
 H     3.973581     5.294107     0.877080
