 122
scf done:    -3447.096763
 C    -0.609250    -3.218682    -1.864247
 H     0.056460    -4.064272    -2.103561
 H    -1.276152    -3.591700    -1.071294
 C    -1.409774    -2.868788    -3.112105
 H    -0.761675    -2.477797    -3.913856
 H    -1.944674    -3.745636    -3.527465
 H    -2.174406    -2.099060    -2.918573
Rh     0.445856    -1.532633    -1.122340
 C    -2.116203     0.653511    -1.499588
 C    -2.961073    -1.940190    -0.093580
 C    -1.663816     0.096073     1.368965
 C     1.779016    -0.113007     1.572759
 C     3.428222     0.616229    -0.813171
 C     1.085212     2.060556    -0.446607
 P     1.677497     0.294561    -0.293089
 P    -1.625284    -0.688603    -0.292186
 C     1.881385    -2.524942    -1.667183
 O     2.739514    -3.244937    -1.948519
 H    -1.122136     1.048589    -1.747145
 H    -2.456219     0.101089    -2.383960
 C    -3.027874     1.802950    -1.191418
 C    -4.262955     1.946671    -1.833894
 H    -4.584179     1.186902    -2.545470
 C    -2.626994     2.803295    -0.300494
 H    -1.656509     2.713988     0.190133
 C    -5.074205     3.047149    -1.573784
 H    -6.033594     3.148815    -2.088051
 C    -3.439204     3.903783    -0.006983
 C    -2.986665     4.933473     0.987700
 H    -2.132068     5.510092     0.600257
 H    -3.791220     5.642158     1.230939
 H    -2.655691     4.455304     1.923534
 C    -4.671642     4.018387    -0.658721
 H    -5.317540     4.875696    -0.448812
 C    -2.681161    -2.922947     0.878317
 O    -1.542536    -2.734204     1.563412
 C    -1.007905    -3.752678     2.360889
 H    -0.039422    -3.378931     2.714949
 H    -1.651990    -3.970354     3.230419
 H    -0.853483    -4.676680     1.778475
 C    -4.120923    -2.099315    -0.867029
 O    -4.353153    -1.186616    -1.837097
 C    -5.382301    -1.421141    -2.755059
 H    -5.322708    -0.623660    -3.507610
 H    -6.378122    -1.381676    -2.279819
 H    -5.262440    -2.394480    -3.260579
 C    -4.985218    -3.181298    -0.650114
 H    -5.889520    -3.296876    -1.245285
 C    -3.529887    -4.013207     1.092617
 H    -3.293762    -4.760826     1.848666
 C    -4.682309    -4.123290     0.326547
 H    -5.358607    -4.966382     0.486072
 C    -0.547281     0.063630     2.218230
 O     0.523815    -0.693188     1.884120
 C    -3.985370    -1.868292     3.910114
 H    -4.342664    -1.168374     4.677299
 H    -4.524118    -1.703349     2.968129
 H    -4.153512    -2.900993     4.244604
 C    -2.859859     0.661784     1.868145
 O    -3.951980     0.480343     1.113511
 C    -5.164995     1.075246     1.479468
 H    -5.881895     0.815478     0.691469
 H    -5.075046     2.172883     1.526776
 H    -5.528777     0.686934     2.446506
 C    -2.878693     1.328758     3.096873
 H    -3.793965     1.794048     3.460909
 C    -0.578382     0.682003     3.473763
 H     0.302781     0.611857     4.113844
 C    -1.729513     1.335736     3.886994
 H    -1.755873     1.826596     4.863373
 H     1.961452     0.788528     2.162997
 H    -2.915413    -1.698338     3.734173
 C     2.839994    -1.149018     1.805493
 C     2.602227    -2.485988     1.466567
 H     1.631365    -2.756374     1.043167
 C     4.081180    -0.794413     2.335339
 H     4.257195     0.242532     2.626072
 C     3.607900    -3.431955     1.634352
 H     3.422272    -4.472181     1.356159
 C     5.107203    -1.731209     2.495029
 C     6.451040    -1.298677     3.007064
 H     6.356571    -0.641839     3.885892
 H     7.073430    -2.159000     3.291581
 H     6.998379    -0.732194     2.234830
 C     4.853857    -3.058107     2.136092
 H     5.642357    -3.807116     2.252304
 C     4.268316     1.424222    -0.019234
 O     3.692864     1.989890     1.061092
 C     4.410921     2.907556     1.831479
 H     3.717554     3.274407     2.598506
 H     5.279127     2.440806     2.330234
 H     4.763387     3.759854     1.225718
 C     3.966618     0.122831    -2.023108
 O     3.133833    -0.495550    -2.867213
 C     3.626101    -1.117740    -4.019152
 H     2.764296    -1.605395    -4.492347
 H     4.375313    -1.889718    -3.778170
 H     4.062529    -0.386603    -4.722597
 C     5.321893     0.315009    -2.338016
 H     5.737078    -0.101722    -3.254068
 C     5.614387     1.632287    -0.334898
 H     6.253307     2.238441     0.305526
 C     6.130855     1.052946    -1.487915
 H     7.184423     1.198003    -1.738682
 C     0.868641     2.450542    -1.787443
 O     1.075151     1.476542    -2.687169
 C     0.846132     1.691734    -4.048483
 H     1.050770     0.734952    -4.543714
 H    -0.201032     1.981615    -4.242954
 H     1.518584     2.466415    -4.456435
 C     0.903647     3.047629     0.542148
 O     1.082483     2.703671     1.833902
 C     0.788574     3.627054     2.841892
 H     0.964628     3.112689     3.794497
 H    -0.266049     3.948082     2.807744
 H     1.440108     4.517195     2.788095
 C     0.536040     4.356368     0.191291
 H     0.407255     5.115373     0.960515
 C     0.470056     3.742119    -2.142213
 H     0.291057     4.005926    -3.183474
 C     0.317356     4.688843    -1.138377
 H     0.016194     5.706820    -1.396182
