  98
scf done:    -2760.447377
 C    -1.451101     1.452047    -3.075392
 H    -1.544014     0.922164    -4.040076
 H    -2.456168     1.408360    -2.620047
 C    -1.107177     2.914697    -3.328600
 H    -0.139441     3.029844    -3.843773
 H    -1.869117     3.419658    -3.952181
 H    -1.042622     3.488592    -2.389507
Rh     0.026968     0.541919    -1.835596
 C    -2.603172     1.602656     0.156620
 C    -3.054557    -0.986815    -1.253014
 C    -1.486019    -0.860277     1.179913
 C     1.630089    -1.685985     0.408590
 C     3.432001     0.028192    -1.030963
 C     1.787139     1.225975     1.041522
 P     1.701578    -0.009619    -0.339972
 P    -1.778032     0.067498    -0.415713
 C     1.099563     0.494702    -3.336807
 O     1.715063     0.350008    -4.300084
 C    -1.765975     2.716395     0.274142
 H    -0.728123     2.620463    -0.053418
 C    -3.949327     1.732566     0.559440
 O    -4.734776     0.646562     0.448022
 C    -6.048977     0.685316     0.931983
 H    -6.074888     0.937696     2.004678
 H    -6.456952    -0.324395     0.799186
 H    -6.670772     1.402378     0.368259
 C    -2.217059     3.931076     0.785219
 H    -1.531794     4.776990     0.865017
 C    -4.412554     2.955902     1.057744
 H    -5.452077     3.063617     1.366725
 C    -3.548069     4.043118     1.172195
 H    -3.930441     4.987820     1.566751
 H    -3.482116    -0.356200    -2.046854
 H    -3.855067    -1.197963    -0.534778
 C    -2.480424    -2.252459    -1.821570
 C    -2.780860    -3.491474    -1.244959
 H    -3.453728    -3.531572    -0.384666
 C    -1.641565    -2.227573    -2.944845
 H    -1.389629    -1.265894    -3.396731
 C    -2.257568    -4.674776    -1.765547
 H    -2.511545    -5.630774    -1.300967
 C    -1.112211    -3.406636    -3.463326
 H    -0.457971    -3.363291    -4.337540
 C    -1.416909    -4.635578    -2.875998
 H    -1.005279    -5.560076    -3.288532
 H    -0.578194    -0.418655     1.615069
 H    -1.214039    -1.882381     0.874704
 C    -2.596403    -0.857648     2.181423
 C    -2.769794     0.230453     3.047583
 H    -2.076602     1.073935     2.995081
 C    -3.491638    -1.929755     2.276857
 H    -3.350215    -2.799385     1.631205
 C    -3.816764     0.253469     3.965394
 H    -3.933205     1.113212     4.629852
 C    -4.540469    -1.910370     3.193655
 H    -5.223739    -2.761235     3.254353
 C    -4.710163    -0.815213     4.039721
 H    -5.529233    -0.799409     4.762885
 C     1.033588    -2.648667    -0.414627
 H     0.610511    -2.317680    -1.368551
 C     2.153165    -2.100060     1.653134
 O     2.734839    -1.167013     2.430529
 C     3.364580    -1.547075     3.622741
 H     2.643096    -1.943554     4.358402
 H     3.830730    -0.640261     4.027832
 H     4.153488    -2.294810     3.439874
 C     0.945510    -3.987687    -0.039675
 H     0.469217    -4.706389    -0.707511
 C     2.048287    -3.441033     2.041025
 H     2.439148    -3.764747     3.005426
 C     1.450980    -4.374889     1.196589
 H     1.381883    -5.416682     1.519626
 H     3.566036     1.051983    -1.414221
 H     3.400128    -0.643482    -1.901864
 C     4.520295    -0.360320    -0.082883
 C     4.892779    -1.703340     0.059353
 H     4.404863    -2.462539    -0.557317
 C     5.161540     0.598547     0.711662
 H     4.891417     1.651944     0.600720
 C     5.869189    -2.079053     0.978835
 H     6.147909    -3.131804     1.071743
 C     6.137125     0.224363     1.632915
 H     6.630586     0.988271     2.239343
 C     6.493016    -1.116920     1.772820
 H     7.262850    -1.410374     2.490823
 H     2.484336     0.867997     1.806908
 H     0.783604     1.224702     1.503101
 C     2.149206     2.627267     0.619052
 C     1.717368     3.198898    -0.584756
 H     1.122579     2.590730    -1.284188
 C     2.929704     3.412845     1.478695
 H     3.282964     2.982437     2.420143
 C     2.043897     4.513470    -0.912844
 H     1.692031     4.930771    -1.859638
 C     3.257869     4.727438     1.153974
 H     3.866443     5.319500     1.842097
 C     2.814028     5.284973    -0.044637
 H     3.072392     6.314901    -0.302203
