 102
scf done:    -3061.315680
 C    -0.910970    -3.055118    -2.418962
 H    -0.694035    -4.132793    -2.362053
 H    -1.960830    -2.948744    -2.101509
 C    -0.729678    -2.540788    -3.839746
 H     0.301830    -2.684165    -4.201349
 H    -1.394883    -3.066733    -4.549788
 H    -0.962922    -1.466865    -3.917314
Rh     0.444460    -1.926685    -1.223374
 O    -2.080249    -0.006856    -1.972371
 O    -2.721429    -1.450022    -0.074572
 O    -1.150114     0.497706     0.384947
 O     2.239152    -0.363916     1.254700
 O     3.461291    -0.888858    -0.919036
 O     1.836262     1.072722    -0.703638
 P     1.959305    -0.535375    -0.344091
 P    -1.378099    -0.724917    -0.692012
 C     1.613863    -3.397538    -1.323030
 O     2.286191    -4.323278    -1.302909
 C    -3.043240     0.976777    -1.932602
 C    -4.339485     0.687777    -1.520032
 H    -4.584584    -0.334411    -1.232919
 C    -2.675720     2.260274    -2.328683
 H    -1.652544     2.446041    -2.656775
 C    -5.295454     1.706867    -1.446311
 C    -6.671321     1.408632    -0.926789
 H    -7.055784     0.459263    -1.328205
 H    -6.657148     1.314533     0.172016
 H    -7.383625     2.204844    -1.184353
 C    -3.631642     3.270863    -2.275651
 H    -3.360118     4.284195    -2.581173
 C    -4.925509     3.001300    -1.828855
 H    -5.663076     3.806630    -1.781714
 C    -2.780918    -2.381736     0.941100
 C    -1.841990    -3.403843     1.052534
 H    -1.024068    -3.458481     0.328336
 C    -3.854952    -2.261505     1.836126
 C    -4.883843    -1.187158     1.667129
 H    -4.419737    -0.200497     1.526343
 H    -5.509468    -1.378450     0.779911
 H    -5.545423    -1.140197     2.542357
 C    -1.942539    -4.315943     2.100356
 H    -1.199437    -5.111192     2.192333
 C    -3.926192    -3.191733     2.877280
 H    -4.749018    -3.110098     3.592659
 C    -2.981836    -4.207536     3.020700
 H    -3.064105    -4.916447     3.847529
 C    -1.936857     0.920199     1.439189
 C    -2.799345     1.998536     1.239510
 H    -2.866314     2.446176     0.248118
 C    -1.773307     0.327211     2.700247
 C    -0.797614    -0.779519     2.963307
 H    -1.316831    -1.681799     3.319502
 H    -0.216177    -1.050297     2.073912
 H    -0.081720    -0.472436     3.741027
 C    -3.555154     2.485527     2.300400
 H    -4.233077     3.326312     2.138175
 C    -2.555551     0.837339     3.745787
 H    -2.452337     0.385408     4.735970
 C    -3.439584     1.894862     3.558824
 H    -4.031726     2.265406     4.398591
 C     2.468231     0.777060     2.002270
 C     1.424624     1.666714     2.228620
 H     0.466760     1.483218     1.748224
 C     3.718801     0.974823     2.578552
 H     4.528251     0.271793     2.380801
 C     1.604248     2.781577     3.050600
 C     0.469158     3.739913     3.268800
 H     0.433386     4.494935     2.465318
 H    -0.500550     3.219851     3.268908
 H     0.574285     4.279632     4.220872
 C     3.903748     2.087707     3.396255
 H     4.880731     2.255495     3.855689
 C     2.860875     2.981135     3.634484
 H     3.022361     3.844833     4.284902
 C     4.633246    -0.342565    -0.444378
 C     4.988959     0.962591    -0.771220
 H     4.323666     1.556240    -1.399311
 C     5.449764    -1.160756     0.349810
 C     5.012121    -2.550787     0.693264
 H     4.082769    -2.530501     1.285295
 H     4.796089    -3.138529    -0.211581
 H     5.781158    -3.074416     1.276753
 C     6.184426     1.486582    -0.284250
 H     6.465296     2.512894    -0.530413
 C     6.648992    -0.612068     0.813887
 H     7.304368    -1.229885     1.433834
 C     7.014902     0.699103     0.509762
 H     7.954974     1.103739     0.891393
 C     1.393212     1.589614    -1.890627
 C     1.307632     0.830118    -3.057697
 H     1.581620    -0.229045    -3.044066
 C     1.052227     2.952290    -1.876876
 C     1.106228     3.728288    -0.598398
 H     0.987900     4.804301    -0.785153
 H     0.299521     3.404933     0.079202
 H     2.048647     3.556749    -0.058106
 C     0.865770     1.425949    -4.237683
 H     0.787004     0.822458    -5.144363
 C     0.642705     3.527490    -3.082445
 H     0.385442     4.590309    -3.091687
 C     0.541850     2.779243    -4.256013
 H     0.208587     3.254403    -5.180998
