  86
scf done:    -2079.404198
 C     3.743229    -1.885632     0.506906
 H     4.081188    -2.919996     0.337255
 H     4.453024    -1.257756    -0.051109
 C     3.809274    -1.587837     1.998726
 H     4.827231    -1.728910     2.410325
 H     3.513935    -0.550423     2.240235
 H     3.142111    -2.248802     2.576107
Rh     1.722950    -1.615850    -0.028742
 C     1.344245     1.755372     1.274691
 C     3.813926     1.277156    -0.277941
 C     1.158923     1.415739    -1.684652
 C    -1.665990    -0.825203    -1.116309
 C    -1.192962    -3.522912     0.027959
 C    -1.141300    -1.076966     1.819285
 P    -0.627635    -1.741290     0.143863
 P     2.026148     0.740015    -0.166247
 C     1.881614    -3.229343    -0.869602
 O     2.017377    -4.156221    -1.546666
 H     0.644702     1.070687     1.770872
 H     2.185701     1.882219     1.972491
 C     0.649638     3.058355     1.014618
 C     1.266513     4.293547     1.237394
 H     2.279110     4.330241     1.642947
 C    -0.664475     3.058474     0.525182
 H    -1.173462     2.102887     0.374308
 C     0.599951     5.480294     0.937619
 H     1.096899     6.437845     1.111998
 C    -1.346269     4.235045     0.208311
 C    -2.750163     4.198298    -0.323030
 H    -3.038039     3.188028    -0.646528
 H    -3.472020     4.522758     0.444760
 H    -2.869264     4.877035    -1.181017
 C    -0.688905     5.454735     0.413992
 H    -1.197990     6.391149     0.169863
 H     4.270949     0.660217     0.513673
 C     4.416524     0.820204    -1.604654
 H     5.516214     0.827457    -1.541011
 H     4.098340    -0.200694    -1.862656
 H     4.131840     1.487739    -2.431174
 C     4.153995     2.729034     0.033058
 H     3.889443     3.002464     1.063359
 H     5.242347     2.875762    -0.064949
 H     3.661883     3.440700    -0.642863
 H     0.115512     1.461797    -1.331233
 C     1.524218     2.821713    -2.148846
 H     0.838726     3.122824    -2.957787
 H     1.440564     3.571476    -1.351861
 H     2.542981     2.861889    -2.559688
 C     1.210714     0.417671    -2.839499
 H     1.026701    -0.609157    -2.486219
 H     0.458763     0.682564    -3.600479
 H     2.194503     0.422657    -3.330138
 H    -1.140093     0.135847    -1.204726
 H    -1.447539    -1.355252    -2.057162
 C    -3.139910    -0.559947    -0.996904
 C    -4.053260    -1.158457    -1.873139
 H    -3.690958    -1.845332    -2.642838
 C    -3.635573     0.353839    -0.059154
 H    -2.939789     0.855418     0.618279
 C    -5.413434    -0.874257    -1.784685
 H    -6.112053    -1.348074    -2.478589
 C    -4.998077     0.647031     0.053232
 C    -5.487832     1.590183     1.113427
 H    -4.760935     2.392521     1.306490
 H    -6.444983     2.052864     0.833557
 H    -5.645905     1.058656     2.066890
 C    -5.886513     0.016497    -0.824606
 H    -6.955860     0.234916    -0.761114
 H    -0.719035    -3.819521    -0.925031
 C    -0.550892    -4.359488     1.132150
 H    -0.634260    -5.430230     0.888616
 H     0.516230    -4.121607     1.256657
 H    -1.055284    -4.203179     2.097942
 C    -2.683626    -3.814473    -0.091430
 H    -3.150287    -3.295069    -0.936108
 H    -2.827411    -4.896240    -0.248325
 H    -3.240854    -3.539657     0.813550
 H    -1.191108     0.010546     1.623903
 C    -2.484372    -1.521874     2.388551
 H    -2.719783    -0.927016     3.286703
 H    -3.314082    -1.402133     1.680900
 H    -2.449406    -2.575531     2.701399
 C    -0.024928    -1.306415     2.838035
 H     0.961254    -1.016783     2.441411
 H    -0.218214    -0.724337     3.753748
 H     0.043332    -2.365589     3.124725
