  90
scf done:    -2904.163509
 C    -1.659528     3.476724    -1.166453
 H    -1.503199     4.001896    -2.121299
 H    -2.612420     2.937482    -1.290256
 C    -1.753323     4.466691    -0.014776
 H    -2.596591     5.170986    -0.146687
 H    -1.907835     3.957011     0.949037
 H    -0.840238     5.075818     0.083496
Rh    -0.025259     2.144666    -0.806534
 O    -1.441304    -0.687804     0.587903
 O    -2.671829     1.493047     0.990978
 O    -2.649502     0.291756    -1.315986
 O     1.467827    -0.885783    -0.438118
 O     2.868532     0.929811    -1.553792
 O     2.456049     0.862261     0.996876
 P     1.675728     0.758259    -0.431845
 P    -1.687369     0.787091    -0.110111
 C     1.020453     3.387468    -1.759893
 O     1.636381     4.128108    -2.374333
 C    -0.785750    -0.931936     1.761692
 C    -0.222096     0.075646     2.542045
 H    -0.286533     1.119362     2.225865
 C    -0.720485    -2.267627     2.162624
 H    -1.183641    -3.029945     1.534449
 C     0.449026    -0.243221     3.728281
 C     1.138429     0.835860     4.507151
 H     0.565873     1.774466     4.492125
 H     1.299636     0.540903     5.553364
 H     2.125628     1.047098     4.062818
 C    -0.078513    -2.581041     3.356652
 H    -0.031274    -3.622322     3.684624
 C     0.504172    -1.580535     4.133630
 H     1.018080    -1.839933     5.062148
 C    -3.961545     1.130689     1.309633
 C    -4.250540    -0.097130     1.902828
 H    -3.448571    -0.800843     2.125109
 C    -4.969595     2.052501     1.034975
 H    -4.698493     3.007685     0.581004
 C    -5.577231    -0.412079     2.187166
 H    -5.811058    -1.379322     2.637475
 C    -6.290523     1.727984     1.333246
 H    -7.084452     2.446555     1.116235
 C    -6.599322     0.491716     1.900638
 H    -7.636720     0.235388     2.126105
 C    -3.593387    -0.718631    -1.335452
 C    -4.932979    -0.364738    -1.468613
 H    -5.204269     0.690686    -1.509108
 C    -3.200657    -2.053820    -1.292581
 H    -2.143268    -2.301947    -1.217144
 C    -5.899010    -1.365577    -1.522917
 H    -6.952034    -1.089785    -1.613342
 C    -4.177888    -3.045135    -1.350455
 H    -3.875561    -4.094867    -1.316581
 C    -5.526640    -2.708105    -1.457520
 H    -6.287066    -3.491108    -1.498079
 C     0.815680    -1.612852    -1.393103
 C     0.637243    -2.967910    -1.110544
 H     1.012377    -3.350996    -0.159265
 C     0.359973    -1.069644    -2.594892
 H     0.497550    -0.008949    -2.815685
 C    -0.006618    -3.807792    -2.022263
 C    -0.238895    -5.253580    -1.690733
 H     0.560753    -5.656403    -1.052479
 H    -1.188986    -5.382689    -1.144780
 H    -0.298715    -5.870326    -2.598768
 C    -0.284310    -1.908295    -3.502544
 H    -0.650339    -1.490176    -4.442771
 C    -0.464256    -3.260818    -3.228115
 H    -0.972065    -3.900895    -3.953628
 C     4.158572     0.456288    -1.494492
 C     4.443795    -0.904208    -1.379910
 H     3.632796    -1.630053    -1.331809
 C     5.183929     1.397243    -1.573997
 H     4.920483     2.451431    -1.679356
 C     5.773245    -1.311340    -1.299442
 H     5.999036    -2.374316    -1.189090
 C     6.508887     0.975135    -1.505225
 H     7.313268     1.712360    -1.563248
 C     6.807993    -0.378783    -1.356426
 H     7.847322    -0.707856    -1.291691
 C     3.426119     0.052232     1.551643
 C     4.691231     0.598824     1.756887
 H     4.884503     1.623002     1.435431
 C     3.132894    -1.249305     1.953222
 H     2.131487    -1.647443     1.802358
 C     5.686580    -0.180947     2.337944
 H     6.683360     0.241593     2.483066
 C     4.137853    -2.017100     2.537922
 H     3.911299    -3.038728     2.852686
 C     5.415795    -1.493200     2.726008
 H     6.199258    -2.104110     3.179787
