 100
scf done:    -2859.387774
 C    -1.068658     0.828883    -3.155234
 H    -0.595612     0.320529    -4.015972
 H    -2.050471     0.338772    -3.043824
 C    -1.316624     2.292003    -3.502354
 H    -0.389406     2.825927    -3.760744
 H    -2.001133     2.402145    -4.363954
 H    -1.771802     2.844841    -2.665488
Rh     0.256997     0.346919    -1.545640
 C    -3.005085     0.777312    -0.464361
 C    -2.437497    -1.893063    -1.550377
 C    -1.798600    -1.270029     1.163761
 C     1.828493    -1.938110     0.805976
 C     3.472279    -0.726042    -1.244473
 C     2.673154     0.789321     1.101116
 P     1.974814    -0.379836    -0.173162
 P    -1.684391    -0.507392    -0.545037
 C     1.440615     1.457480    -2.427990
 O     2.138871     2.213491    -2.942331
 H    -3.858109     0.382492     0.111820
 H    -3.355888     0.918688    -1.497096
 C    -2.515963     2.104105     0.108403
 H    -2.000871     1.932844     1.063636
 H    -1.753507     2.522090    -0.571044
 C    -3.625305     3.128600     0.353922
 H    -4.370897     2.648230     1.016241
 C    -3.062438     4.336341     1.094269
 H    -2.603789     4.041951     2.051299
 H    -3.845764     5.079282     1.309906
 H    -2.287629     4.838776     0.490956
 C    -4.335032     3.549083    -0.927800
 H    -5.137761     4.272677    -0.717495
 H    -4.792062     2.694029    -1.448943
 H    -3.630138     4.026800    -1.628053
 H    -2.378129    -1.561503    -2.596621
 H    -1.735656    -2.735258    -1.449757
 C    -3.828413    -2.306439    -1.184823
 C    -4.062712    -3.381330    -0.316126
 H    -3.216784    -3.959908     0.065188
 C    -4.939727    -1.612433    -1.684277
 H    -4.787478    -0.786478    -2.383093
 C    -5.353631    -3.743690     0.062092
 H    -5.539399    -4.582988     0.734588
 C    -6.236233    -1.959668    -1.317943
 H    -7.103768    -1.423892    -1.707347
 C    -6.427340    -3.020575    -0.440355
 F    -7.665335    -3.356937    -0.083492
 H    -2.704777    -1.893170     1.173649
 H    -0.933549    -1.937416     1.279766
 C    -1.874335    -0.261232     2.265772
 C    -0.730923     0.405690     2.718281
 H     0.239194     0.123360     2.311827
 C    -3.111565     0.114411     2.803792
 H    -4.018183    -0.404832     2.482221
 C    -0.808957     1.449151     3.635031
 H     0.079642     1.987823     3.969135
 C    -3.213077     1.156253     3.721725
 H    -4.175556     1.466279     4.132406
 C    -2.058888     1.824116     4.112378
 F    -2.153157     2.844298     4.963034
 H     1.184432    -1.709768     1.671750
 H     2.816838    -2.200877     1.215595
 C     1.223101    -3.075194    -0.004182
 H     0.315224    -2.698454    -0.505847
 H     1.900118    -3.358994    -0.829416
 C     0.875698    -4.327323     0.804040
 H     0.229319    -4.008546     1.644761
 C     0.080707    -5.307893    -0.049953
 H    -0.841314    -4.849044    -0.441064
 H    -0.206343    -6.202285     0.523922
 H     0.673332    -5.644642    -0.916604
 C     2.112068    -4.995619     1.395445
 H     1.838277    -5.876877     1.995478
 H     2.681552    -4.315484     2.046161
 H     2.789653    -5.338070     0.595168
 H     3.102117    -1.387037    -2.043502
 H     3.701384     0.236769    -1.726046
 C     4.685644    -1.290663    -0.575192
 C     5.709196    -0.452060    -0.112460
 H     5.639719     0.623232    -0.291743
 C     4.835651    -2.670573    -0.375589
 H     4.072500    -3.355185    -0.751937
 C     6.826009    -0.957730     0.548063
 H     7.625024    -0.304973     0.904079
 C     5.943269    -3.196052     0.283248
 H     6.059959    -4.270246     0.437930
 C     6.925298    -2.328735     0.745862
 F     7.987384    -2.822968     1.379040
 H     2.096409     0.629962     2.024716
 H     3.711186     0.502812     1.329413
 C     2.571774     2.218666     0.654759
 C     1.317013     2.840908     0.567887
 H     0.419790     2.289414     0.855006
 C     3.697469     2.943258     0.255154
 H     4.687521     2.486368     0.325589
 C     1.189293     4.141678     0.096136
 H     0.215091     4.627892     0.022219
 C     3.587671     4.246592    -0.227837
 H     4.462424     4.815395    -0.547088
 C     2.329895     4.827317    -0.305474
 F     2.212563     6.070649    -0.769494
