  82
scf done:    -2151.236987
 C    -2.009834    -2.323580    -0.979979
 H    -2.098424    -3.406747    -0.803590
 H    -2.923819    -1.882667    -0.553366
 C    -1.928654    -2.033921    -2.470164
 H    -1.055455    -2.522242    -2.933610
 H    -2.822435    -2.399060    -3.011439
 H    -1.856841    -0.952624    -2.668381
Rh    -0.214732    -1.488426    -0.201502
 O    -2.634489     0.685194    -0.893332
 C    -2.715617    -0.230190     1.747591
 C    -1.022692     1.997463     0.846174
 O     2.215239     0.869944    -0.269544
 C     2.831699    -0.960442     1.705249
 C     3.063773    -1.535407    -1.202775
 P     1.947926    -0.769865     0.069705
 P    -1.577594     0.296161     0.359059
 C     0.187162    -3.252640     0.151855
 O     0.297994    -4.343769     0.508462
 C    -3.890638     1.203809    -0.788716
 C    -4.983255     0.336827    -0.780683
 H    -4.794429    -0.737102    -0.853472
 C    -4.091602     2.586624    -0.743157
 H    -3.233962     3.259239    -0.780692
 C    -6.290023     0.826790    -0.687476
 C    -7.454963    -0.120103    -0.696790
 H    -7.269317    -0.992726    -0.052815
 H    -8.376345     0.370594    -0.353164
 H    -7.640706    -0.502577    -1.713969
 C    -5.390036     3.079492    -0.650140
 H    -5.554143     4.159012    -0.606855
 C    -6.479945     2.211139    -0.611747
 H    -7.493466     2.612392    -0.532333
 H    -3.440891    -0.857545     1.201099
 C    -1.992357    -1.139575     2.738066
 H    -2.716676    -1.563019     3.452076
 H    -1.484301    -1.962329     2.214177
 H    -1.234960    -0.592811     3.320973
 C    -3.486060     0.877707     2.458291
 H    -4.050634     1.519076     1.768379
 H    -4.211307     0.425687     3.153996
 H    -2.821447     1.517678     3.058578
 H    -1.941545     2.533893     1.137882
 C    -0.090968     1.927533     2.049150
 H     0.301856     2.929776     2.283901
 H    -0.593067     1.546670     2.949855
 H     0.765510     1.273232     1.834733
 C    -0.388434     2.711287    -0.342264
 H    -1.067716     2.739677    -1.205798
 H    -0.135521     3.748392    -0.068198
 H     0.534993     2.203759    -0.651353
 C     3.372956     1.578616    -0.128387
 C     4.316765     1.609282    -1.157023
 H     4.120797     1.047825    -2.071977
 C     3.579339     2.334086     1.029402
 H     2.820230     2.332833     1.812086
 C     5.494812     2.353620    -1.030990
 C     6.487884     2.394709    -2.156246
 H     6.571189     1.419162    -2.657445
 H     6.182567     3.128270    -2.920865
 H     7.486785     2.685360    -1.801561
 C     4.749735     3.074854     1.160874
 H     4.918325     3.658548     2.069111
 C     5.706166     3.078073     0.147233
 H     6.624081     3.659348     0.265622
 H     2.552585    -0.016170     2.206110
 C     2.230054    -2.099600     2.522864
 H     2.662714    -2.102313     3.535923
 H     1.138863    -1.996233     2.607901
 H     2.433801    -3.083341     2.073534
 C     4.355056    -1.033046     1.653071
 H     4.803155    -0.204105     1.088833
 H     4.759727    -0.989460     2.677116
 H     4.701280    -1.977453     1.208413
 H     4.041719    -1.040418    -1.078072
 C     3.250465    -3.036918    -1.017685
 H     4.018631    -3.401996    -1.717904
 H     3.570992    -3.312591    -0.003128
 H     2.320910    -3.581119    -1.233993
 C     2.505335    -1.223886    -2.588404
 H     2.349571    -0.146239    -2.741570
 H     3.188403    -1.590417    -3.371526
 H     1.529982    -1.718940    -2.724935
