 106
scf done:    -2465.447897
 C     0.043572     2.853354    -1.627815
 H    -0.145748     3.040738    -2.698116
 H    -0.856971     3.189959    -1.094049
 C     1.244471     3.666449    -1.161478
 H     2.147092     3.446891    -1.754380
 H     1.070632     4.758772    -1.236145
 H     1.499211     3.454959    -0.108798
Rh     0.498671     0.838458    -1.170824
 C    -1.389412     0.874368     1.988754
 C    -2.846099     1.727816    -0.327487
 C    -2.185806    -1.035572    -0.003331
 C     0.732739    -2.725778    -0.724226
 C     3.189894    -1.414969    -1.063252
 C     1.771808    -0.969567     1.450047
 P     1.504565    -1.093825    -0.372647
 P    -1.434465     0.640848     0.160326
 C     1.361678     0.794888    -2.788311
 O     1.790725     0.699115    -3.856356
 C    -1.595789    -0.159949     2.904420
 H    -1.806019    -1.167030     2.540713
 C    -1.080895     2.155084     2.496536
 O    -0.824566     3.101733     1.573513
 C    -0.511415     4.407434     1.975513
 H    -1.342312     4.869231     2.536337
 H    -0.330591     4.977188     1.056353
 H     0.400995     4.432910     2.595358
 C    -1.544331     0.059012     4.282316
 H    -1.715718    -0.768505     4.973510
 C    -1.042697     2.386882     3.874231
 H    -0.817256     3.380232     4.262345
 C    -1.280922     1.337140     4.761285
 H    -1.247745     1.527661     5.836601
 H    -3.709179     1.507643     0.320886
 H    -2.534246     2.758170    -0.106229
 C    -3.188959     1.579374    -1.802944
 H    -2.253214     1.611175    -2.387773
 H    -3.628520     0.583435    -1.990196
 C    -4.144732     2.652128    -2.304188
 H    -3.692061     3.644743    -2.127738
 H    -5.074161     2.633798    -1.705300
 C    -4.489536     2.511608    -3.780104
 H    -3.555163     2.524551    -4.368196
 H    -4.936975     1.516650    -3.954045
 C    -5.430791     3.591902    -4.287588
 H    -5.659903     3.463767    -5.356493
 H    -4.991980     4.594659    -4.159911
 H    -6.386536     3.580384    -3.738716
 H    -2.100691    -1.273716    -1.073746
 H    -1.495593    -1.743771     0.483307
 C    -3.618092    -1.253993     0.464997
 H    -3.770664    -0.844497     1.477805
 H    -4.309276    -0.695950    -0.188525
 C    -3.999677    -2.728723     0.451186
 H    -3.322956    -3.285956     1.125401
 H    -3.812249    -3.144390    -0.555504
 C    -5.443706    -2.992195     0.852558
 H    -5.623682    -2.566935     1.856019
 H    -6.114593    -2.439262     0.171343
 C    -5.811518    -4.467132     0.847271
 H    -6.860381    -4.627225     1.139715
 H    -5.180025    -5.038449     1.546819
 H    -5.673539    -4.908870    -0.152820
 C    -0.094672    -2.778441    -1.849581
 H    -0.248412    -1.848460    -2.407355
 C     0.953772    -3.914678     0.000246
 O     1.816744    -3.847642     1.036587
 C     2.055009    -4.988824     1.811281
 H     1.132986    -5.356424     2.294651
 H     2.770006    -4.694011     2.589908
 H     2.494420    -5.806515     1.213793
 C    -0.726986    -3.956723    -2.242658
 H    -1.369605    -3.968579    -3.125188
 C     0.298741    -5.094934    -0.370953
 H     0.446891    -6.013453     0.197186
 C    -0.538088    -5.108697    -1.486590
 H    -1.038362    -6.039566    -1.764891
 H     3.591310    -2.331613    -0.599813
 H     3.007732    -1.645463    -2.126739
 C     4.164297    -0.251005    -0.944468
 H     3.627048     0.693957    -1.142668
 H     4.536427    -0.179990     0.091801
 C     5.346107    -0.364676    -1.896983
 H     4.965665    -0.398034    -2.933914
 H     5.864398    -1.327637    -1.733750
 C     6.342242     0.778233    -1.761909
 H     5.812216     1.734679    -1.916003
 H     6.719084     0.810187    -0.723892
 C     7.511229     0.678829    -2.728477
 H     8.212354     1.518707    -2.608045
 H     7.164198     0.682585    -3.774260
 H     8.079021    -0.253302    -2.575086
 H     0.827558    -1.273627     1.932100
 H     2.537508    -1.689500     1.772143
 C     2.127801     0.454620     1.862562
 H     3.093190     0.744649     1.417310
 H     1.387360     1.154200     1.434443
 C     2.191603     0.640521     3.370331
 H     2.914067    -0.076286     3.803049
 H     1.210865     0.386874     3.808060
 C     2.576381     2.054398     3.780318
 H     3.569706     2.298794     3.363800
 H     1.873854     2.761720     3.306049
 C     2.579252     2.268724     5.284531
 H     2.860246     3.299184     5.551546
 H     3.291010     1.591114     5.783316
 H     1.583513     2.069771     5.712320
