  90
scf done:    -4369.431940
 C    -1.839495    -3.515411    -0.187663
 H    -2.445908    -3.928969     0.634120
 H    -2.571998    -3.209971    -0.955978
 C    -0.934461    -4.603152    -0.749921
 H    -0.276796    -5.029289     0.024681
 H    -1.515757    -5.440041    -1.179842
 H    -0.276264    -4.235612    -1.555269
Rh    -0.664538    -1.866430     0.444779
 C    -2.458192    -0.613457    -2.371562
 C    -3.963258    -0.944313     0.056168
 C    -2.300972     1.267109    -0.132473
 C     1.542023    -0.034123     2.577336
 C     2.616246    -1.038578     0.113252
 C     1.059563     1.345630     0.048076
 P     1.057483    -0.332253     0.788943
 P    -2.269083    -0.524189    -0.526618
 C    -0.165250    -2.917436     1.878307
 O     0.001023    -3.479193     2.872272
 H    -2.890718    -1.613275    -2.540867
 H    -3.198981     0.120261    -2.720675
 C    -1.167579    -0.474593    -3.130043
 C    -0.991992     0.542409    -4.071254
 H    -1.800816     1.253006    -4.263444
 C    -0.124483    -1.388552    -2.927354
 H    -0.256237    -2.188266    -2.190422
 C     0.202132     0.644259    -4.784805
 H     0.326878     1.441324    -5.522065
 C     1.075776    -1.307802    -3.638139
 C     2.186855    -2.286537    -3.401236
 H     3.016400    -1.814018    -2.850986
 H     1.847975    -3.144156    -2.805274
 H     2.596049    -2.663091    -4.350767
 C     1.227615    -0.270406    -4.570060
 H     2.159243    -0.188634    -5.136699
 C    -5.107178    -0.474730    -0.600432
 H    -5.019812     0.130243    -1.505846
 C    -4.115799    -1.682189     1.233646
 H    -3.219183    -2.044016     1.744688
 C    -6.377532    -0.753168    -0.107721
 H    -7.270359    -0.392603    -0.620920
 C    -5.380732    -1.958935     1.745046
 H    -5.499542    -2.536037     2.663401
 C    -6.506054    -1.496457     1.066080
Cl    -8.084039    -1.841781     1.686863
 C    -2.469752     1.615309     1.215316
 H    -2.543753     0.828334     1.971427
 C    -2.201097     2.284610    -1.082849
 H    -2.037453     2.047419    -2.134015
 C    -2.555103     2.945828     1.605164
 H    -2.691654     3.216781     2.653364
 C    -2.276462     3.623995    -0.704658
 H    -2.165484     4.419312    -1.443144
 C    -2.454886     3.945265     0.636928
Cl    -2.495226     5.608502     1.119703
 H     0.863948     0.739191     2.968406
 H     1.272011    -0.967852     3.089872
 C     2.987820     0.287577     2.798312
 C     3.897238    -0.754769     3.019201
 H     3.531651    -1.782134     3.092466
 C     3.480175     1.593049     2.703255
 H     2.786134     2.419187     2.534331
 C     5.259495    -0.492483     3.114116
 H     5.960682    -1.315400     3.271603
 C     4.847320     1.875731     2.798268
 C     5.338444     3.292027     2.711471
 H     5.305958     3.781755     3.699164
 H     6.378783     3.337554     2.358641
 H     4.717645     3.892342     2.030020
 C     5.734130     0.812319     2.996040
 H     6.807520     1.010101     3.061992
 C     2.757520    -2.429288     0.049639
 H     1.903492    -3.064811     0.296328
 C     3.713950    -0.236078    -0.226786
 H     3.636638     0.850850    -0.170900
 C     3.964657    -3.012560    -0.326362
 H     4.071335    -4.097370    -0.373177
 C     4.921734    -0.804230    -0.614455
 H     5.777493    -0.177065    -0.868164
 C     5.042205    -2.193575    -0.655141
Cl     6.548538    -2.905896    -1.123810
 C     0.788734     2.503042     0.785680
 H     0.585489     2.446476     1.855484
 C     1.260065     1.471722    -1.333645
 H     1.447532     0.587130    -1.944781
 C     0.749050     3.754364     0.177590
 H     0.516643     4.649472     0.756285
 C     1.221950     2.714412    -1.956023
 H     1.374065     2.796299    -3.032854
 C     0.968503     3.851972    -1.193659
Cl     0.863056     5.398484    -1.967708
