  82
scf done:    -2151.190640
 C    -2.148123     2.317526    -1.317103
 H    -2.171192     2.718374    -2.344297
 H    -2.993607     1.618803    -1.240391
 C    -2.331521     3.448551    -0.313164
 H    -1.580116     4.243612    -0.445147
 H    -3.326380     3.930507    -0.395891
 H    -2.234170     3.094110     0.727508
Rh    -0.331691     1.366655    -0.796941
 C    -1.945514    -1.381789     1.017075
 C    -2.932769    -0.934387    -1.634827
 C    -0.338749    -2.085235    -1.259397
 C     2.678877    -0.567714    -0.475967
 C     2.868506     2.049324     0.498526
 C     1.236284     0.176680     2.025096
 P     1.606143     0.711553     0.296716
 P    -1.405015    -0.722715    -0.617393
 C     0.492205     2.679774    -1.777135
 O     1.023750     3.404133    -2.502833
 C    -1.364271    -2.490950     1.634996
 H    -0.557033    -3.026114     1.132218
 C    -2.956842    -0.689161     1.717778
 O    -3.438047     0.411512     1.108581
 C    -4.386467     1.212022     1.759389
 H    -5.327671     0.663890     1.938497
 H    -4.581821     2.061193     1.093919
 H    -4.001078     1.592348     2.720934
 C    -1.789642    -2.939754     2.887056
 H    -1.320460    -3.814621     3.341521
 C    -3.396135    -1.137419     2.966264
 H    -4.185316    -0.606254     3.498464
 C    -2.814823    -2.267276     3.541734
 H    -3.164672    -2.610430     4.518171
 H    -3.315302    -1.958324    -1.495015
 H    -3.683768    -0.253142    -1.210051
 C    -2.692992    -0.615470    -3.104815
 H    -2.020847    -1.371426    -3.546459
 H    -2.153373     0.343843    -3.173108
 C    -3.983179    -0.549747    -3.906508
 H    -4.537385    -1.501438    -3.861604
 H    -4.646348     0.239262    -3.517508
 H    -3.787236    -0.326768    -4.966432
 H     0.124632    -1.672478    -2.168049
 H     0.502215    -2.189972    -0.554483
 C    -0.971006    -3.437446    -1.566699
 H    -1.671911    -3.330708    -2.410282
 H    -1.580130    -3.785815    -0.716672
 C     0.080637    -4.482249    -1.911152
 H     0.696745    -4.159244    -2.765322
 H     0.767168    -4.650712    -1.065542
 H    -0.376949    -5.449164    -2.170414
 C     2.576182    -0.688044    -1.864789
 H     1.844698    -0.051277    -2.373703
 C     3.622575    -1.369911     0.197267
 O     3.750642    -1.177719     1.527611
 C     4.651438    -1.964229     2.254957
 H     4.400492    -3.037667     2.194352
 H     4.574577    -1.640789     3.300841
 H     5.691121    -1.821550     1.912281
 C     3.350640    -1.597106    -2.583425
 H     3.248736    -1.670481    -3.667955
 C     4.382219    -2.306470    -0.513859
 H     5.098659    -2.945842     0.002210
 C     4.241085    -2.415800    -1.897065
 H     4.845591    -3.148611    -2.437257
 H     3.734998     1.630014     1.037403
 H     3.204337     2.266975    -0.529804
 C     2.365787     3.325015     1.161418
 H     2.209896     3.144452     2.237925
 H     1.375218     3.580705     0.746424
 C     3.320232     4.493986     0.972967
 H     4.321821     4.265177     1.371837
 H     3.435198     4.737160    -0.095272
 H     2.955096     5.398110     1.483689
 H     0.944434    -0.885646     1.976198
 H     2.149302     0.224350     2.636166
 C     0.105586     0.994326     2.643068
 H    -0.768491     0.969780     1.970171
 H     0.398341     2.054489     2.700405
 C    -0.281631     0.492349     4.024342
 H    -0.612131    -0.556633     3.984383
 H     0.567616     0.551885     4.724724
 H    -1.106620     1.084248     4.449873
