  98
scf done:    -2760.499818
 C     2.302101    -2.673354    -1.057767
 H     2.362195    -3.232051    -1.999622
 H     3.276913    -2.210116    -0.857783
 C     1.722309    -3.464656     0.088307
 H     1.390100    -4.473704    -0.193250
 H     2.377695    -3.520750     0.969500
 H     0.780261    -2.967128     0.511257
Rh     0.630337    -1.448321    -0.865747
 O     2.258729     0.746806     1.447715
 C     3.412525     0.648509    -0.994097
 C     0.991213     1.959945    -0.472375
 O    -2.023024     0.505009    -1.307467
 C    -2.741097    -2.025274    -0.673807
 C    -1.941149    -0.237146     1.368063
 P    -1.487872    -0.741646    -0.323351
 P     1.807959     0.353439    -0.150419
 C     0.126815    -1.791199    -2.624151
 O    -0.111129    -1.854970    -3.750307
 C     2.812747    -0.128758     2.321594
 C     3.617206    -1.193994     1.916261
 H     3.825026    -1.334305     0.854218
 C     2.569473     0.085307     3.682567
 H     1.950469     0.933877     3.979841
 C     4.176693    -2.067738     2.856124
 C     5.072408    -3.183779     2.401282
 H     4.724152    -3.621488     1.453854
 H     6.097216    -2.815465     2.228073
 H     5.131583    -3.985292     3.151213
 C     3.122372    -0.781212     4.618371
 H     2.929233    -0.619575     5.681835
 C     3.914491    -1.855523     4.212916
 H     4.339142    -2.532876     4.958029
 C     3.618270     0.145145    -2.280337
 H     2.839245    -0.466802    -2.742815
 C     4.416799     1.420947    -0.398869
 H     4.263251     1.826009     0.603874
 C     4.804077     0.414070    -2.960185
 H     4.946281     0.016801    -3.969078
 C     5.602729     1.672486    -1.078748
 H     6.379742     2.274215    -0.598277
 C     5.818748     1.175261    -2.371446
 C     7.112496     1.434067    -3.086224
 H     7.451291     2.470932    -2.941206
 H     7.911438     0.776185    -2.705219
 H     7.020917     1.250861    -4.166115
 C     0.424915     2.158674    -1.737521
 H     0.441022     1.346350    -2.468133
 C     0.938888     2.996843     0.462487
 H     1.380552     2.853950     1.449106
 C    -0.181178     3.366617    -2.054946
 H    -0.632505     3.495942    -3.042280
 C     0.325992     4.206278     0.133785
 H     0.291240     5.007611     0.877763
 C    -0.250153     4.411246    -1.123243
 C    -0.972333     5.682256    -1.456389
 H    -0.757397     6.475399    -0.726209
 H    -0.698822     6.051852    -2.456271
 H    -2.062634     5.513874    -1.459911
 C    -3.015010     1.393800    -0.996848
 C    -2.757673     2.418330    -0.087995
 H    -1.771909     2.472600     0.376418
 C    -4.260852     1.289182    -1.615720
 H    -4.444114     0.482534    -2.326268
 C    -3.747509     3.348811     0.236964
 C    -3.470169     4.403160     1.268280
 H    -3.523716     3.973145     2.282596
 H    -2.458568     4.818935     1.150283
 H    -4.195756     5.227231     1.214857
 C    -5.245580     2.225353    -1.307237
 H    -6.223283     2.157264    -1.790600
 C    -4.995900     3.243136    -0.387908
 H    -5.780672     3.966251    -0.150461
 C    -3.251508    -2.161437    -1.970828
 H    -2.954059    -1.450739    -2.745204
 C    -3.105875    -2.965113     0.294835
 H    -2.713352    -2.883272     1.311791
 C    -4.121455    -3.200283    -2.279635
 H    -4.511217    -3.288054    -3.297800
 C    -3.972282    -4.007907    -0.025524
 H    -4.246480    -4.733354     0.745454
 C    -4.500111    -4.142362    -1.313557
 C    -5.453401    -5.249500    -1.654944
 H    -5.183338    -5.731085    -2.607050
 H    -5.471491    -6.022412    -0.873888
 H    -6.480705    -4.865094    -1.767239
 C    -3.280436    -0.048585     1.748889
 H    -4.084459    -0.236283     1.033905
 C    -0.935483    -0.000055     2.306150
 H     0.109099    -0.144504     2.026713
 C    -3.590921     0.385101     3.029598
 H    -4.638299     0.537174     3.304902
 C    -1.256218     0.423851     3.594664
 H    -0.454026     0.591677     4.317470
 C    -2.583866     0.632043     3.975789
 C    -2.936468     1.098883     5.356827
 H    -3.505401     2.041595     5.322505
 H    -3.569234     0.360871     5.875103
 H    -2.039541     1.265448     5.969047
