  84
scf done:    -1853.352984
 C    -2.024065    -0.079327     2.257605
 H    -1.828484     0.521913     3.162354
 H    -2.844407     0.439819     1.735672
 C    -2.517429    -1.466602     2.652719
 H    -1.805046    -1.987154     3.311911
 H    -3.487137    -1.427379     3.184937
 H    -2.665096    -2.119782     1.775427
Rh    -0.291874    -0.268527     1.030169
 C    -3.037945     1.125169    -0.759438
 C    -1.549698     2.896707     0.972167
 C    -0.638078     2.314308    -1.753557
 C     2.686293    -0.118915    -1.110910
 C     2.501869    -2.345985     0.710730
 C     0.685866    -2.142243    -1.713261
 P     1.419596    -1.179136    -0.287601
 P    -1.290447     1.467627    -0.213632
 C     0.526939    -0.733160     2.600642
 O     1.068992    -0.831423     3.616306
 H    -3.292807     1.776534    -1.612500
 H    -3.693059     1.430065     0.070695
 C    -3.270364    -0.339537    -1.100996
 H    -2.610479    -0.631539    -1.934932
 H    -2.948315    -0.953780    -0.242555
 C    -4.711297    -0.709446    -1.457709
 H    -5.032437    -0.059722    -2.294484
 C    -4.772163    -2.156227    -1.935324
 H    -4.112996    -2.323042    -2.801878
 H    -5.794033    -2.443238    -2.227905
 H    -4.448559    -2.843267    -1.135630
 C    -5.666025    -0.484807    -0.289824
 H    -6.692763    -0.782202    -0.553460
 H    -5.701009     0.569369     0.023679
 H    -5.356983    -1.082014     0.584508
 H    -2.294056     2.458428     1.657288
 C    -0.311407     3.198961     1.809033
 H    -0.571816     3.879570     2.635702
 H     0.098239     2.269936     2.233760
 H     0.483619     3.683256     1.222913
 C    -2.160112     4.145191     0.348354
 H    -3.068910     3.923599    -0.232001
 H    -2.442419     4.860191     1.138146
 H    -1.452323     4.664974    -0.315852
 H    -1.390966     3.087470    -1.984870
 C     0.700309     3.001527    -1.519548
 H     1.128644     3.347134    -2.474467
 H     0.604530     3.878569    -0.865739
 H     1.424640     2.321990    -1.051262
 C    -0.582211     1.358338    -2.936854
 H    -1.555185     0.890012    -3.144956
 H    -0.270344     1.895262    -3.847125
 H     0.145159     0.552872    -2.763555
 H     2.155484     0.476202    -1.871261
 H     3.414740    -0.743225    -1.650338
 C     3.368121     0.803815    -0.107848
 H     2.585089     1.327662     0.468353
 H     3.921694     0.205977     0.638676
 C     4.327462     1.827037    -0.719784
 H     3.770580     2.379709    -1.499960
 C     4.769938     2.831700     0.337411
 H     3.906538     3.346468     0.787076
 H     5.437640     3.597144    -0.087563
 H     5.316397     2.327935     1.152140
 C     5.529747     1.165208    -1.384139
 H     6.206564     1.915606    -1.821311
 H     5.232354     0.480078    -2.192485
 H     6.110423     0.583436    -0.648211
 H     2.730511    -1.719384     1.590256
 C     1.710746    -3.550523     1.210990
 H     2.254940    -4.048926     2.028510
 H     0.721008    -3.257850     1.592737
 H     1.565724    -4.294259     0.412448
 C     3.832789    -2.768836     0.097756
 H     4.472236    -1.912440    -0.159568
 H     4.390960    -3.379479     0.826176
 H     3.705193    -3.379466    -0.806701
 H     0.330565    -1.315356    -2.352037
 C     1.633398    -2.999372    -2.542237
 H     1.116492    -3.363502    -3.445330
 H     2.526030    -2.448723    -2.873853
 H     1.967532    -3.885975    -1.983302
 C    -0.550044    -2.923460    -1.273050
 H    -1.181955    -2.320222    -0.603210
 H    -1.152851    -3.216262    -2.147892
 H    -0.279786    -3.842372    -0.734268
