 102
scf done:    -3061.207173
 C     1.288524    -3.870935    -1.503077
 H     1.361029    -4.215826    -2.546698
 H     2.308396    -3.597180    -1.199399
 C     0.737342    -4.975553    -0.612887
 H    -0.238745    -5.346490    -0.964945
 H     1.416656    -5.849495    -0.568277
 H     0.589617    -4.632597     0.424493
Rh    -0.017086    -2.204142    -1.313950
 C     1.572943    -1.057920     1.578192
 O     3.161727    -1.415956    -0.690648
 O     1.456372     0.538547    -0.610010
 C    -1.492069     1.031554    -1.696598
 O    -3.047621    -1.161653    -1.483630
 O    -1.840071    -0.381877     0.696211
 P    -1.574633    -0.626350    -0.909278
 P     1.615099    -1.064619    -0.248915
 C    -0.990636    -3.009476    -2.700068
 O    -1.511942    -3.439019    -3.626070
 C     0.869293    -0.054438     2.247832
 H     0.473280     0.782173     1.670164
 C     1.994784    -2.193546     2.298219
 O     2.614786    -3.146723     1.579371
 C     2.979412    -4.356086     2.187572
 H     3.741983    -4.202863     2.970932
 H     3.399317    -4.985006     1.393646
 H     2.105704    -4.867427     2.625505
 C     0.641582    -0.131178     3.620613
 H     0.089560     0.662791     4.126973
 C     1.771371    -2.273514     3.675783
 H     2.111014    -3.140605     4.242523
 C     1.101019    -1.238283     4.327933
 H     0.928570    -1.312108     5.404533
 C     4.293147    -0.717214    -0.348873
 C     4.877984    -0.849471     0.906956
 H     4.448623    -1.545021     1.626097
 C     4.866185     0.122540    -1.304086
 H     4.400993     0.194828    -2.288313
 C     5.999754    -0.083155     1.221637
 H     6.446917    -0.179627     2.214985
 C     5.983321     0.877828    -0.974795
 H     6.409567     1.552309    -1.722497
 C     6.560693     0.805546     0.300505
 C     7.729902     1.674723     0.661763
 H     8.198734     1.352389     1.602268
 H     7.414437     2.723888     0.790520
 H     8.500852     1.663453    -0.123875
 C     2.264521     1.633688    -0.476910
 C     2.334929     2.482838    -1.580962
 H     1.770663     2.219936    -2.477116
 C     2.961263     1.952634     0.689298
 H     2.919746     1.294610     1.555590
 C     3.119176     3.631116    -1.524907
 H     3.169451     4.284249    -2.400786
 C     3.749520     3.098442     0.722456
 H     4.308497     3.323964     1.634928
 C     3.851855     3.957339    -0.378093
 C     4.750332     5.159482    -0.340246
 H     4.428522     5.929125    -1.056676
 H     5.787222     4.885366    -0.599323
 H     4.776330     5.614585     0.661031
 C    -1.764117     1.032223    -3.069991
 H    -2.085928     0.098773    -3.539854
 C    -1.031957     2.223662    -1.099418
 O    -0.723824     2.191405     0.208126
 C    -0.410821     3.383929     0.878117
 H     0.517803     3.835251     0.490590
 H    -0.261611     3.114626     1.931176
 H    -1.238798     4.110200     0.811261
 C    -1.642304     2.184788    -3.840684
 H    -1.868612     2.158085    -4.908230
 C    -0.924541     3.388085    -1.870955
 H    -0.579030     4.314886    -1.414249
 C    -1.228895     3.365200    -3.229179
 H    -1.129803     4.283331    -3.813331
 C    -4.277716    -0.699909    -1.089654
 C    -4.915147     0.327611    -1.780520
 H    -4.435545     0.769812    -2.654335
 C    -4.897058    -1.289770     0.012991
 H    -4.387342    -2.104247     0.530414
 C    -6.147387     0.795908    -1.326569
 H    -6.637158     1.611862    -1.865382
 C    -6.122678    -0.809549     0.454450
 H    -6.586714    -1.261819     1.335135
 C    -6.763664     0.253896    -0.194834
 C    -8.058285     0.802614     0.330304
 H    -8.536178     1.476665    -0.394606
 H    -7.892705     1.374912     1.258591
 H    -8.771404    -0.001153     0.569121
 C    -2.694678     0.355840     1.468454
 C    -2.812486    -0.054646     2.794947
 H    -2.222324    -0.909511     3.129044
 C    -3.430024     1.452781     1.018038
 H    -3.362292     1.776952    -0.018847
 C    -3.679123     0.613662     3.656892
 H    -3.766482     0.273109     4.692612
 C    -4.294787     2.103277     1.889777
 H    -4.880586     2.946563     1.512672
 C    -4.444421     1.699730     3.222689
 C    -5.413343     2.395634     4.134634
 H    -5.270829     2.092164     5.181569
 H    -6.456128     2.161583     3.862076
 H    -5.305054     3.490107     4.081652
