  66
scf done:    -2065.930103
 C    -3.275047    -2.565465     0.116479
 H    -4.310048    -2.587529    -0.257152
 H    -2.713246    -3.320564    -0.452092
 C    -3.248757    -2.885109     1.604147
 H    -3.766525    -3.836916     1.829996
 H    -2.218316    -2.990471     1.981015
 H    -3.748177    -2.107828     2.207989
Rh    -2.383636    -0.651794    -0.035025
 C     1.054196    -1.076718     0.979433
 O    -0.323414    -3.283845     0.084111
 O     0.401993    -1.429498    -1.552265
 C    -0.172735     1.926695    -1.159853
 O    -2.405844     2.742141    -0.101386
 O    -0.605191     1.720012     1.456200
 P    -1.439299     1.416400     0.063403
 P    -0.327297    -1.660872    -0.088750
 C    -3.957894    -0.124659    -0.871950
 O    -4.863621     0.163867    -1.517753
 H     1.028735     0.022395     0.898097
 H     0.706567    -1.308116     1.999088
 C     2.441858    -1.603340     0.763721
 C     3.039299    -2.440475     1.714000
 H     2.483258    -2.718777     2.613563
 C     3.176640    -1.251583    -0.373237
 H     2.709196    -0.616207    -1.128428
 C     4.331779    -2.917726     1.518341
 H     4.788636    -3.572073     2.264852
 C     4.479655    -1.716265    -0.582411
 C     5.242888    -1.295446    -1.805143
 H     4.645996    -1.439210    -2.718808
 H     5.504865    -0.225708    -1.757007
 H     6.177400    -1.863141    -1.914764
 C     5.048070    -2.559797     0.377625
 H     6.064089    -2.936134     0.231264
 C     0.742619    -4.138246    -0.283829
 H     1.393530    -3.673903    -1.039957
 H     1.353598    -4.395400     0.593658
 H     0.302865    -5.057210    -0.698467
 C    -0.361893    -1.591400    -2.734583
 H    -0.560767    -2.657306    -2.932650
 H    -1.325736    -1.061063    -2.650454
 H     0.227880    -1.175938    -3.562866
 H     0.353326     1.004088    -1.445093
 H    -0.757174     2.251417    -2.035429
 C     0.792998     2.976308    -0.699375
 C     0.410762     4.314872    -0.570951
 H    -0.612536     4.606772    -0.816071
 C     2.097976     2.611803    -0.354376
 H     2.402006     1.565306    -0.447740
 C     1.327269     5.256784    -0.110521
 H     1.024656     6.302236    -0.009969
 C     3.030282     3.543833     0.108098
 C     4.431874     3.123143     0.445892
 H     4.779530     3.593005     1.378356
 H     4.506179     2.032336     0.564898
 H     5.137066     3.420518    -0.348180
 C     2.624863     4.878014     0.227166
 H     3.333868     5.627739     0.589778
 C    -3.536272     2.890981     0.725732
 H    -4.014502     1.917884     0.936574
 H    -3.262537     3.370955     1.680213
 H    -4.259399     3.531646     0.202185
 C    -1.028130     1.145918     2.671794
 H    -1.696840     1.831273     3.218002
 H    -1.561666     0.191050     2.503307
 H    -0.138412     0.958553     3.290174
