 110
scf done:    -2917.587499
 C    -1.671972    -1.650910     2.954227
 H    -1.458959    -1.389694     4.005368
 H    -2.617130    -1.142442     2.717271
 C    -1.873944    -3.155487     2.837964
 H    -0.983575    -3.717001     3.164644
 H    -2.721148    -3.515761     3.453981
 H    -2.074527    -3.464790     1.799668
Rh    -0.084558    -0.964604     1.698603
 C    -2.467466    -1.542682    -0.716139
 C    -3.139857     0.828298     0.975665
 C    -1.187474     1.044859    -1.085588
 C     1.875703     1.448972     0.077410
 C     3.386905    -0.740331     1.181584
 C     1.920707    -1.196525    -1.256478
 P     1.740247    -0.361054     0.387841
 P    -1.743398    -0.135916     0.228546
 C     0.961273    -1.586933     3.079489
 O     1.577883    -1.959523     3.977117
 C    -1.807615    -1.978794    -1.869873
 H    -0.952108    -1.414397    -2.242959
 C    -3.555619    -2.311385    -0.249257
 O    -4.171749    -1.884622     0.869057
 C    -5.161923    -2.676056     1.464937
 H    -6.052962    -2.771176     0.820169
 H    -5.446673    -2.167594     2.394542
 H    -4.780371    -3.680876     1.711607
 C    -2.196207    -3.124792    -2.558461
 H    -1.646275    -3.438597    -3.447154
 C    -3.955526    -3.460251    -0.941545
 H    -4.799245    -4.049218    -0.582418
 C    -3.275635    -3.864165    -2.089009
 H    -3.596378    -4.768217    -2.611748
 H    -3.872359     1.049222     0.186859
 H    -3.623819     0.169207     1.704470
 C    -2.642725     2.086591     1.627558
 C    -1.887577     2.027918     2.807893
 H    -1.637710     1.055288     3.239671
 C    -2.928231     3.335831     1.072286
 H    -3.516754     3.384704     0.152299
 C    -1.446276     3.202194     3.409605
 H    -0.863410     3.150248     4.332776
 C    -2.479944     4.525376     1.658844
 C    -2.812848     5.847665     1.030258
 H    -2.676258     5.813092    -0.061625
 H    -3.864865     6.121885     1.214150
 H    -2.185044     6.656270     1.431126
 C    -1.737421     4.442492     2.840146
 H    -1.382755     5.359724     3.319410
 H    -0.579669     1.773796    -0.533089
 H    -0.465545     0.506758    -1.719957
 C    -2.191124     1.786744    -1.923702
 C    -1.988713     3.154075    -2.149254
 H    -1.121427     3.646562    -1.700501
 C    -3.313511     1.176955    -2.494789
 H    -3.485748     0.111171    -2.330258
 C    -2.891494     3.884716    -2.917431
 H    -2.725613     4.952707    -3.081123
 C    -4.232829     1.896649    -3.265435
 C    -5.416924     1.208183    -3.881087
 H    -5.225644     0.967747    -4.940268
 H    -5.644845     0.263697    -3.366776
 H    -6.314765     1.843351    -3.850087
 C    -4.010189     3.263556    -3.467496
 H    -4.721062     3.845274    -4.061029
 C     1.281365     2.244814     1.063931
 H     0.763594     1.736370     1.884804
 C     2.512630     2.092759    -1.006111
 O     3.086143     1.318880    -1.945519
 C     3.822551     1.907743    -2.980664
 H     3.183584     2.519186    -3.641752
 H     4.254381     1.082392    -3.560205
 H     4.645147     2.527955    -2.588035
 C     1.295368     3.636524     1.000109
 H     0.802151     4.220430     1.777911
 C     2.518599     3.491683    -1.080129
 H     2.996707     3.993501    -1.921283
 C     1.913255     4.254005    -0.082076
 H     1.925669     5.343955    -0.162621
 H     3.318311    -0.322925     2.196885
 H     3.410372    -1.837460     1.279510
 C     4.581594    -0.214231     0.454822
 C     5.270027    -1.003359    -0.475862
 H     4.971483    -2.044501    -0.622429
 C     4.995974     1.106947     0.649282
 H     4.467501     1.725515     1.380505
 C     6.327475    -0.466476    -1.203730
 H     6.863913    -1.089746    -1.923856
 C     6.048863     1.666135    -0.081900
 C     6.437120     3.100215     0.135569
 H     5.572512     3.767681    -0.011690
 H     6.796798     3.265033     1.163804
 H     7.234526     3.413699    -0.553097
 C     6.709730     0.861653    -1.015875
 H     7.538589     1.278182    -1.595256
 H     1.116561    -0.792489    -1.893916
 H     2.858906    -0.869264    -1.717824
 C     1.853039    -2.699603    -1.210463
 C     2.792768    -3.446504    -1.935036
 H     3.579767    -2.927586    -2.489162
 C     0.850841    -3.383046    -0.516511
 H     0.130872    -2.808175     0.082779
 C     2.718059    -4.835741    -1.965876
 H     3.455592    -5.408166    -2.534122
 C     0.753509    -4.779178    -0.546233
 C    -0.357993    -5.467350     0.189591
 H    -1.337698    -5.097040    -0.151876
 H    -0.329314    -6.555910     0.040787
 H    -0.301023    -5.265527     1.270007
 C     1.701794    -5.498453    -1.279341
 H     1.643191    -6.589990    -1.311993
