 100
scf done:    -2462.601106
 C    -1.898899    -1.885575    -2.369016
 H    -1.605466    -2.834744    -2.844286
 H    -2.844916    -2.091185    -1.847823
 C    -2.105198    -0.843220    -3.456093
 H    -2.911942    -1.136431    -4.153490
 H    -2.388987     0.143076    -3.051795
 H    -1.198110    -0.694453    -4.063586
Rh    -0.408152    -1.211697    -1.028209
 C    -2.099903     2.036932    -0.649920
 C    -3.772312    -0.274647    -0.401699
 C    -1.955945     0.319809     1.743757
 C     1.678366     0.989973     1.090761
 C     2.489923    -1.796535     0.908850
 C     2.885277     0.093026    -1.266905
 P     1.629343    -0.479617    -0.039455
 P    -2.026303     0.258758    -0.107161
 C     0.079338    -2.975657    -1.038667
 O     0.225487    -4.113234    -0.911793
 H    -3.088589     2.455888    -0.419336
 H    -2.020220     1.998287    -1.748269
 C    -1.021728     2.937000    -0.071576
 H    -0.960579     2.792513     1.020113
 H    -0.039704     2.638472    -0.469528
 C    -1.219577     4.426119    -0.364501
 H    -2.212864     4.714242     0.030528
 C    -0.166127     5.248000     0.369580
 H    -0.189490     5.056007     1.453734
 H    -0.317092     6.327250     0.214025
 H     0.845803     4.998150     0.010463
 C    -1.203115     4.726268    -1.859059
 H    -1.329523     5.803073    -2.049481
 H    -2.005130     4.200300    -2.398331
 H    -0.242091     4.420662    -2.306802
 C    -4.603805     0.468775    -1.251250
 H    -4.236149     1.382815    -1.717585
 C    -4.263773    -1.481917     0.149815
 C    -3.427009    -2.389575     0.999574
 H    -3.341103    -2.017120     2.031706
 H    -2.404388    -2.472697     0.595555
 H    -3.868738    -3.394785     1.037724
 C    -5.907395     0.069800    -1.533421
 H    -6.527236     0.672375    -2.201312
 C    -5.581233    -1.857168    -0.139037
 H    -5.960336    -2.788899     0.289528
 C    -6.404643    -1.096785    -0.963171
 H    -7.426025    -1.424829    -1.170221
 C    -1.059862    -0.579525     2.338107
 H    -0.476877    -1.229877     1.676444
 C    -2.772801     1.121763     2.573037
 C    -3.811031     2.074681     2.055609
 H    -4.402184     1.631010     1.242311
 H    -3.355045     3.001713     1.672782
 H    -4.501094     2.361881     2.860582
 C    -0.927516    -0.683341     3.718637
 H    -0.228569    -1.406336     4.145545
 C    -2.614976     1.011788     3.961976
 H    -3.241884     1.633048     4.607529
 C    -1.705207     0.130244     4.537464
 H    -1.619214     0.069072     5.625135
 H     0.886704     0.856197     1.842410
 H     1.298148     1.776412     0.426835
 C     2.993075     1.441680     1.725748
 H     3.017904     1.129644     2.781688
 H     3.857380     0.949082     1.253051
 C     3.211413     2.957163     1.646970
 H     2.291829     3.448006     2.019919
 C     4.366701     3.378983     2.546502
 H     4.185212     3.098193     3.595731
 H     4.528329     4.467599     2.511199
 H     5.304664     2.893580     2.228749
 C     3.447478     3.420418     0.212779
 H     3.549565     4.515586     0.161236
 H     2.627520     3.132651    -0.462793
 H     4.367715     2.973163    -0.197033
 C     2.407614    -1.746052     2.309332
 H     1.930677    -0.891540     2.790986
 C     3.093639    -2.917060     0.293825
 C     3.244043    -3.076916    -1.192834
 H     4.242655    -2.748591    -1.523366
 H     2.510945    -2.490191    -1.760266
 H     3.123811    -4.132279    -1.474239
 C     2.913161    -2.766730     3.106582
 H     2.834457    -2.699132     4.194231
 C     3.599828    -3.930203     1.118976
 H     4.064498    -4.800042     0.646429
 C     3.517415    -3.867726     2.505330
 H     3.919367    -4.680911     3.114279
 C     4.250792    -0.065582    -0.993758
 H     4.556151    -0.613193    -0.098879
 C     2.489374     0.768518    -2.440433
 C     1.050475     0.963118    -2.811377
 H     0.471531     0.029644    -2.639484
 H     0.944855     1.239858    -3.869258
 H     0.574177     1.754868    -2.213232
 C     5.225485     0.441287    -1.847681
 H     6.283229     0.301090    -1.613164
 C     3.485487     1.272950    -3.286667
 H     3.182970     1.793453    -4.199376
 C     4.838371     1.120855    -2.999698
 H     5.589594     1.523853    -3.683169
