 110
scf done:    -2617.851535
 C     0.910706    -1.441500    -2.865319
 H     0.640315    -1.195961    -3.903688
 H     1.951824    -1.111086    -2.736900
 C     0.784763    -2.937718    -2.629085
 H    -0.244217    -3.292596    -2.804885
 H     1.443322    -3.517304    -3.303652
 H     1.067806    -3.212177    -1.600474
Rh    -0.411019    -0.600823    -1.437769
 O     2.602527    -1.661261    -0.409946
 C     2.390504     1.118083    -0.593949
 C     1.648454    -0.434729     1.766715
 O    -2.387907     0.980584     1.042100
 C    -3.822244     0.028729    -1.078450
 C    -2.777122    -1.685852     0.972985
 P    -2.261373    -0.258853    -0.107078
 P     1.493537    -0.429350    -0.078091
 C    -1.242127     0.092853    -2.913421
 O    -1.658871     0.664377    -3.825832
 C     3.960835    -1.568977    -0.359597
 C     4.664516    -1.188607    -1.502619
 H     4.102382    -0.980725    -2.416122
 C     4.652781    -1.894843     0.811261
 H     4.100285    -2.226118     1.691261
 C     6.058170    -1.072245    -1.485521
 C     6.791069    -0.616449    -2.713909
 H     6.616369     0.456086    -2.900135
 H     7.875365    -0.765326    -2.616149
 H     6.449211    -1.159222    -3.608141
 C     6.040449    -1.790674     0.831167
 H     6.586063    -2.041232     1.744213
 C     6.738888    -1.371832    -0.300381
 H     7.828118    -1.288353    -0.268607
 H     2.813474     0.810051    -1.568559
 C     3.540721     1.595605     0.296906
 H     4.258780     0.788515     0.498352
 H     3.137046     1.915063     1.273162
 C     4.261816     2.777955    -0.345355
 H     5.079646     3.116271     0.311529
 H     4.738149     2.438289    -1.283270
 C     3.304469     3.924816    -0.646919
 H     3.838205     4.754092    -1.139413
 H     2.912415     4.327540     0.304992
 C     2.135423     3.454273    -1.503525
 H     2.507103     3.163361    -2.502997
 H     1.418036     4.275267    -1.662732
 C     1.417413     2.266771    -0.875267
 H     0.933881     2.589083     0.062418
 H     0.605225     1.905373    -1.524074
 H     2.716572    -0.230115     1.961998
 C     1.316151    -1.804797     2.354984
 H     1.918534    -2.587412     1.870245
 H     0.267008    -2.046988     2.124044
 C     1.524634    -1.818111     3.865937
 H     1.247001    -2.802831     4.276698
 H     2.600766    -1.685007     4.081519
 C     0.733350    -0.712297     4.557887
 H     0.952972    -0.703059     5.637765
 H    -0.345619    -0.927980     4.466676
 C     1.024385     0.653900     3.945903
 H     2.069684     0.936894     4.166649
 H     0.390652     1.426238     4.412587
 C     0.818870     0.658151     2.433940
 H    -0.245245     0.495821     2.200421
 H     1.066658     1.649027     2.025633
 C    -1.970437     2.256721     0.838402
 C    -1.587798     2.979698     1.972336
 H    -1.642639     2.481693     2.942865
 C    -1.919446     2.860328    -0.420313
 H    -2.200461     2.308161    -1.316401
 C    -1.131041     4.294417     1.871016
 C    -0.731818     5.057683     3.100941
 H    -0.344558     4.388402     3.883051
 H     0.041640     5.806074     2.875529
 H    -1.594407     5.596319     3.527595
 C    -1.471888     4.175912    -0.524114
 H    -1.423451     4.643661    -1.510372
 C    -1.072904     4.888090     0.602444
 H    -0.711900     5.914654     0.501176
 H    -3.559331     0.825443    -1.796584
 C    -5.007122     0.522774    -0.250547
 H    -4.728980     1.426533     0.311404
 H    -5.279403    -0.239405     0.501953
 C    -6.212809     0.801656    -1.144646
 H    -7.069939     1.121831    -0.530274
 H    -5.974357     1.650939    -1.810015
 C    -6.585377    -0.409738    -1.992098
 H    -7.429818    -0.167624    -2.657475
 H    -6.936208    -1.221631    -1.328823
 C    -5.394556    -0.909300    -2.802739
 H    -5.105483    -0.145012    -3.546016
 H    -5.666817    -1.811320    -3.374131
 C    -4.196858    -1.204282    -1.905433
 H    -4.455397    -2.038900    -1.229629
 H    -3.335203    -1.540134    -2.504559
 H    -3.861469    -1.814749     0.808316
 C    -2.576860    -1.448882     2.468604
 H    -3.151768    -0.567886     2.786748
 H    -1.521762    -1.206099     2.663563
 C    -2.971963    -2.676214     3.283048
 H    -2.773316    -2.491830     4.351817
 H    -4.062179    -2.835188     3.194706
 C    -2.244550    -3.930512     2.812528
 H    -2.568531    -4.805431     3.398957
 H    -1.161564    -3.816069     3.000407
 C    -2.473791    -4.171965     1.325209
 H    -3.543282    -4.393777     1.155133
 H    -1.915688    -5.058801     0.984699
 C    -2.074264    -2.959605     0.491364
 H    -0.981294    -2.811887     0.544169
 H    -2.293173    -3.136711    -0.573801
