 102
scf done:    -3061.232213
 C     2.205408    -2.744477    -0.866132
 H     2.801441    -2.825831    -1.788053
 H     2.901023    -2.436955    -0.073532
 C     1.552924    -4.072285    -0.514568
 H     0.889888    -4.438967    -1.314577
 H     2.302871    -4.865830    -0.327230
 H     0.934699    -3.994073     0.394576
Rh     0.593984    -1.384209    -1.028193
 C     0.958649    -0.241682     2.354075
 O     3.087197    -0.001128     0.811535
 O     1.045076     1.473654     0.247399
 C    -1.664754     1.152745    -2.124648
 O    -2.674537    -1.203539    -1.289549
 O    -1.688133     0.367981     0.502249
 P    -1.351835    -0.238017    -1.009835
 P     1.445167    -0.096989     0.608459
 C     0.542690    -1.863003    -2.837354
 O     0.625488    -2.000031    -3.975122
 C     0.103629     0.675970     2.964679
 H    -0.194648     1.573591     2.422541
 C     1.310001    -1.420643     3.041917
 O     2.097627    -2.275697     2.368157
 C     2.480983    -3.488144     2.956302
 H     3.080538    -3.323057     3.868076
 H     3.091180    -4.011952     2.210918
 H     1.606779    -4.113343     3.205411
 C    -0.385457     0.449978     4.249987
 H    -1.055179     1.177044     4.712652
 C     0.824791    -1.648701     4.333116
 H     1.096322    -2.554044     4.876324
 C    -0.019084    -0.709452     4.926964
 H    -0.397217    -0.897847     5.934799
 C     3.961355    -0.036038    -0.242890
 C     3.626506     0.462579    -1.498587
 H     2.643834     0.909143    -1.656694
 C     5.219329    -0.591070    -0.008476
 H     5.450488    -0.973357     0.987080
 C     4.534064     0.377528    -2.560327
 C     4.125688     0.862141    -3.920836
 H     3.326961     0.225109    -4.335468
 H     3.731475     1.889607    -3.877119
 H     4.967974     0.849398    -4.626393
 C     6.132064    -0.653254    -1.054832
 H     7.120416    -1.086450    -0.882976
 C     5.791914    -0.182827    -2.324448
 H     6.513272    -0.251885    -3.142565
 C     1.551058     2.662016     0.693870
 C     2.439950     2.782085     1.759880
 H     2.795949     1.890031     2.275161
 C     1.103923     3.796334     0.008329
 H     0.423012     3.667944    -0.835714
 C     2.886886     4.046630     2.164304
 C     3.851949     4.158151     3.308946
 H     3.461128     3.657586     4.208599
 H     4.811543     3.675886     3.062817
 H     4.056790     5.207186     3.563826
 C     1.545397     5.049830     0.413432
 H     1.197939     5.939797    -0.117001
 C     2.428852     5.178732     1.485499
 H     2.771237     6.169079     1.795625
 C    -0.524010     1.666161    -2.748427
 H     0.427796     1.157221    -2.569517
 C    -2.913309     1.774968    -2.343685
 O    -3.976453     1.229902    -1.744921
 C    -5.213471     1.886049    -1.787598
 H    -5.143177     2.903725    -1.368267
 H    -5.895679     1.294670    -1.165230
 H    -5.612968     1.936040    -2.815317
 C    -0.589579     2.794573    -3.562223
 H     0.311926     3.182761    -4.039603
 C    -2.977401     2.913434    -3.156499
 H    -3.930940     3.412240    -3.329423
 C    -1.821705     3.413115    -3.755041
 H    -1.895259     4.301128    -4.387992
 C    -2.647550    -2.489209    -0.815814
 C    -2.083469    -2.801236     0.426603
 H    -1.675530    -2.005182     1.053874
 C    -3.200001    -3.488556    -1.612711
 H    -3.625669    -3.219014    -2.580450
 C    -2.047665    -4.123435     0.877700
 C    -1.427960    -4.453289     2.205179
 H    -0.978129    -3.563601     2.668588
 H    -2.175782    -4.858304     2.905928
 H    -0.641859    -5.216925     2.093552
 C    -3.175821    -4.804828    -1.157380
 H    -3.601968    -5.595663    -1.779562
 C    -2.600863    -5.124346     0.070746
 H    -2.579417    -6.164078     0.407615
 C    -2.701482     1.195187     0.894306
 C    -3.891559     0.646366     1.365211
 H    -4.004633    -0.440033     1.361534
 C    -2.503652     2.575103     0.872656
 H    -1.556968     2.976469     0.507900
 C    -4.921578     1.475912     1.817434
 C    -6.195695     0.882260     2.346160
 H    -6.513512     0.014187     1.749431
 H    -6.065065     0.530267     3.382917
 H    -7.013297     1.617123     2.348686
 C    -3.529291     3.404209     1.320420
 H    -3.388958     4.487850     1.308522
 C    -4.727015     2.862972     1.785283
 H    -5.523863     3.525331     2.133927
