 118
scf done:    -3518.835101
 C    -1.126207    -1.452899     2.812996
 H    -1.003751    -0.975554     3.798704
 H    -2.187009    -1.351950     2.552530
 C    -0.729221    -2.914251     2.935656
 H     0.312168    -3.019271     3.277004
 H    -1.360272    -3.468835     3.659685
 H    -0.806182    -3.451189     1.976717
Rh     0.075998    -0.567443     1.310587
 C    -2.688586    -1.313403    -1.111861
 C    -3.336263     0.571567     0.885668
 C    -1.560864     1.316508    -1.292805
 C     2.024032     1.481973    -1.055296
 C     3.446617    -0.013978     1.059019
 C     2.519448    -1.374809    -1.204649
 P     1.958260    -0.056057    -0.047881
 P    -1.834161    -0.019871    -0.045203
 C     0.946849     0.084813     2.753237
 O     1.357586     0.657770     3.676347
 C    -2.830895    -1.242504    -2.498071
 H    -2.511931    -0.341391    -3.018854
 C    -3.257089    -2.432754    -0.471655
 O    -3.150859    -2.471370     0.869675
 C    -3.873308    -3.412999     1.607790
 H    -4.953582    -3.353037     1.388653
 H    -3.703884    -3.169430     2.663633
 H    -3.522305    -4.443243     1.420841
 C    -3.445103    -2.250702    -3.240279
 H    -3.528539    -2.150237    -4.325032
 C    -3.895841    -3.443048    -1.201492
 H    -4.326439    -4.301133    -0.684923
 C    -3.973437    -3.360341    -2.589309
 H    -4.463736    -4.157981    -3.152821
 C    -4.627208     0.533782     0.319958
 O    -4.699622     0.410077    -1.019233
 C    -5.889740    -0.007044    -1.622574
 H    -5.649185    -0.209780    -2.674139
 H    -6.273623    -0.934077    -1.163187
 H    -6.672873     0.770485    -1.576715
 C    -3.242644     1.031562     2.218134
 O    -2.027864     1.360327     2.665570
 C    -1.845527     1.679545     4.015580
 H    -0.763862     1.766446     4.171371
 H    -2.228989     0.884517     4.676731
 H    -2.336754     2.634512     4.275844
 C    -4.391779     1.189329     3.009716
 H    -4.304497     1.492275     4.051863
 C    -5.780277     0.683331     1.102461
 H    -6.769350     0.606265     0.652011
 C    -5.646784     0.981019     2.452427
 H    -6.539029     1.097171     3.072693
 C    -2.101079     2.611284    -1.179512
 O    -2.641852     2.958100     0.006469
 C    -3.710348     3.861458     0.049713
 H    -4.185387     3.733587     1.032738
 H    -3.374605     4.908833    -0.051459
 H    -4.451206     3.641345    -0.736793
 C    -0.814585     1.031310    -2.455685
 O    -0.208229    -0.172735    -2.493143
 C     0.231620    -0.672650    -3.725957
 H     0.576957    -1.696939    -3.546322
 H     1.072532    -0.085208    -4.128043
 H    -0.587609    -0.686975    -4.465830
 C    -0.761818     1.930979    -3.524941
 H    -0.204011     1.685572    -4.426388
 C    -2.046860     3.519716    -2.241954
 H    -2.493550     4.508734    -2.138471
 C    -1.394093     3.162677    -3.413267
 H    -1.344796     3.870160    -4.244191
 C     2.454837     1.560136    -2.376102
 H     2.850070     0.669380    -2.861531
 C     1.506993     2.648113    -0.451522
 O     1.183563     2.534662     0.843695
 C     0.457621     3.541708     1.489948
 H     1.023900     4.489774     1.528260
 H     0.292704     3.183152     2.512202
 H    -0.520144     3.704091     1.008981
 C     2.390037     2.754522    -3.095186
 H     2.742629     2.789007    -4.128639
 C     1.402546     3.837997    -1.176598
 H     0.973782     4.726981    -0.713592
 C     1.857414     3.888652    -2.493628
 H     1.780237     4.825426    -3.051251
 C     3.701732    -1.198050     1.780222
 O     2.911576    -2.244468     1.477214
 C     2.992849    -3.424176     2.218952
 H     2.209390    -4.086820     1.830385
 H     3.974518    -3.916192     2.098910
 H     2.806544    -3.245462     3.291586
 C     4.281515     1.090175     1.302751
 O     4.087571     2.186753     0.549854
 C     4.682318     3.398484     0.898799
 H     4.263625     4.151321     0.216915
 H     5.780165     3.377338     0.772740
 H     4.450651     3.684331     1.940015
 C     5.287175     1.032239     2.278451
 H     5.916640     1.899995     2.472477
 C     4.711301    -1.267861     2.746174
 H     4.885955    -2.186591     3.304403
 C     5.488500    -0.142372     2.991455
 H     6.272705    -0.183686     3.751212
 C     1.731257    -2.527267    -1.386430
 O     0.567635    -2.581636    -0.721894
 C    -0.235229    -3.725219    -0.819377
 H    -1.053750    -3.577003    -0.109214
 H    -0.658700    -3.841471    -1.831685
 H     0.322399    -4.636959    -0.543477
 C     3.798320    -1.348414    -1.794627
 O     4.552490    -0.272656    -1.515172
 C     5.865663    -0.183890    -1.980695
 H     6.269427     0.751914    -1.574209
 H     5.911159    -0.144298    -3.083662
 H     6.483205    -1.026978    -1.625695
 C     4.242476    -2.388867    -2.622349
 H     5.224978    -2.350213    -3.091185
 C     2.165754    -3.570305    -2.219179
 H     1.542901    -4.448293    -2.382356
 C     3.410655    -3.482073    -2.831550
 H     3.746495    -4.295193    -3.479977
