 104
scf done:    -2763.414805
 C    -1.777815    -3.105644    -1.238490
 H    -1.740693    -3.498092    -2.267143
 H    -1.198546    -3.816041    -0.624094
 C    -3.211274    -3.046942    -0.726073
 H    -3.853584    -2.425206    -1.370122
 H    -3.670584    -4.052206    -0.674924
 H    -3.268039    -2.624009     0.290399
Rh    -1.069905    -1.107835    -1.105547
 C     1.760014    -3.098124    -0.774619
 O     1.677484    -0.804783     0.654984
 O     0.301986    -2.905311     1.404555
 C     0.921607     1.855882    -1.381848
 O    -1.699049     2.161604    -1.142881
 O    -0.447446     1.321242     0.953673
 P    -0.552167     1.042012    -0.687069
 P     0.620401    -1.958638     0.066883
 C    -1.860451    -0.804460    -2.784442
 O    -2.187047    -0.663212    -3.875617
 H     2.515046    -3.444898    -0.050187
 H     1.147896    -3.969284    -1.057862
 C     2.395562    -2.453957    -1.999151
 H     1.594392    -2.057784    -2.647762
 H     2.995246    -1.582298    -1.686074
 C     3.276963    -3.412204    -2.785896
 H     2.675763    -4.282681    -3.105361
 H     4.063281    -3.816123    -2.122403
 C     3.924500    -2.768914    -4.004059
 H     3.134262    -2.360748    -4.658555
 H     4.520096    -1.898060    -3.676802
 C     4.804353    -3.722810    -4.795423
 H     5.258325    -3.228771    -5.667791
 H     4.226339    -4.584931    -5.165350
 H     5.623383    -4.119664    -4.174020
 C     2.912956    -1.012849     1.204266
 C     3.980410    -0.266564     0.703284
 H     3.806492     0.416559    -0.130844
 C     3.120211    -1.894141     2.267635
 H     2.281360    -2.472163     2.656101
 C     5.247017    -0.402861     1.264592
 H     6.074698     0.186810     0.860845
 C     4.396048    -2.023241     2.809508
 H     4.548485    -2.719775     3.638807
 C     5.481919    -1.282947     2.326645
 C     6.842639    -1.410236     2.947965
 H     7.632469    -1.072791     2.261708
 H     7.060100    -2.450438     3.232468
 H     6.919701    -0.800381     3.863705
 C    -0.873006    -2.725954     2.094125
 C    -1.592399    -3.860384     2.465837
 H    -1.198740    -4.844494     2.205126
 C    -1.353590    -1.455701     2.404970
 H    -0.786406    -0.565339     2.125594
 C    -2.803967    -3.717278     3.132384
 H    -3.368193    -4.612296     3.409224
 C    -2.576614    -1.332252     3.064297
 H    -2.951549    -0.331296     3.296591
 C    -3.326497    -2.451945     3.435047
 C    -4.641798    -2.313500     4.145903
 H    -4.573810    -2.666633     5.187949
 H    -5.427706    -2.907544     3.654038
 H    -4.975566    -1.266519     4.171514
 H     1.747959     1.471200    -0.760710
 H     1.046335     1.381126    -2.370081
 C     0.962490     3.373971    -1.497902
 H     0.158525     3.706339    -2.173621
 H     0.748956     3.837590    -0.523803
 C     2.311176     3.872680    -1.996227
 H     2.533306     3.429692    -2.984594
 H     3.104258     3.507989    -1.317339
 C     2.391224     5.390037    -2.086798
 H     1.594577     5.754259    -2.759241
 H     2.162915     5.817968    -1.094596
 C     3.740928     5.897216    -2.567659
 H     3.767890     6.996231    -2.620021
 H     3.979092     5.510896    -3.571893
 H     4.551189     5.576750    -1.892790
 C    -3.031915     1.848250    -1.067711
 C    -3.549168     1.021357    -0.069178
 H    -2.895565     0.612397     0.703358
 C    -3.877139     2.372040    -2.045030
 H    -3.451360     3.006560    -2.824444
 C    -4.907773     0.710294    -0.071236
 H    -5.294822     0.044330     0.704888
 C    -5.232114     2.061684    -2.022434
 H    -5.884187     2.471828    -2.798800
 C    -5.774847     1.221015    -1.040561
 C    -7.240276     0.894378    -1.031077
 H    -7.464579     0.078834    -0.329236
 H    -7.589742     0.587449    -2.028906
 H    -7.843435     1.767234    -0.730975
 C     0.037243     2.472869     1.517640
 C    -0.783969     3.590580     1.656118
 H    -1.816941     3.542043     1.307466
 C     1.358936     2.508046     1.958610
 H     1.977408     1.614876     1.854736
 C    -0.260877     4.756233     2.208941
 H    -0.903999     5.635565     2.303917
 C     1.864958     3.682914     2.507387
 H     2.906029     3.708735     2.841246
 C     1.070670     4.829101     2.637472
 C     1.618407     6.084474     3.252555
 H     1.117340     6.979574     2.856338
 H     2.697504     6.186675     3.066756
 H     1.473747     6.085898     4.346050
