 104
scf done:    -2763.408496
 C    -1.876835    -2.816619    -1.617800
 H    -2.245250    -3.728126    -1.123040
 H    -2.758053    -2.163585    -1.725394
 C    -1.299468    -3.130614    -2.990772
 H    -0.488095    -3.874761    -2.937722
 H    -2.064415    -3.536915    -3.679423
 H    -0.881092    -2.233915    -3.480616
Rh    -0.313474    -1.880980    -0.528023
 C    -1.969506     1.122849    -1.521591
 O    -3.285160    -0.484984     0.075107
 O    -1.269197     0.721980     1.132923
 C     1.703899    -0.560425     2.070496
 O     2.994777    -1.191858    -0.119053
 O     1.414855     0.824824    -0.354049
 P     1.447518    -0.729709     0.267719
 P    -1.694918    -0.133186    -0.233494
 C     0.270879    -3.602657    -0.053398
 O     0.515771    -4.627953     0.401250
 H    -1.035190     1.708750    -1.538694
 H    -1.971219     0.540056    -2.459410
 C    -3.200754     2.016066    -1.434894
 H    -4.103351     1.393578    -1.539158
 H    -3.265125     2.480279    -0.439114
 C    -3.192135     3.113259    -2.489059
 H    -3.139518     2.663041    -3.497443
 H    -2.270501     3.713197    -2.377510
 C    -4.401577     4.033355    -2.402019
 H    -5.322132     3.431721    -2.504198
 H    -4.441863     4.472185    -1.389377
 C    -4.394356     5.141453    -3.442288
 H    -5.278344     5.790698    -3.351371
 H    -4.387431     4.730639    -4.464834
 H    -3.501499     5.779092    -3.339247
 C    -3.721365    -1.591441     0.757120
 C    -2.959369    -2.211103     1.745261
 H    -1.966699    -1.825847     1.984525
 C    -4.999135    -2.056960     0.414314
 C    -5.781001    -1.368477    -0.661234
 H    -6.752321    -1.856660    -0.817885
 H    -5.959278    -0.310197    -0.413105
 H    -5.229550    -1.378688    -1.615324
 C    -3.467665    -3.329463     2.403073
 H    -2.865819    -3.821178     3.170585
 C    -5.486516    -3.173477     1.097343
 H    -6.479745    -3.552075     0.840963
 C    -4.732640    -3.813046     2.080779
 H    -5.135358    -4.688699     2.594407
 C    -1.592948     2.029967     1.412714
 C    -0.773747     3.040618     0.909768
 H     0.091971     2.761949     0.309657
 C    -2.696974     2.318634     2.230072
 C    -3.560467     1.230970     2.789316
 H    -4.271148     0.860964     2.034128
 H    -2.962727     0.364514     3.103960
 H    -4.137823     1.593667     3.650530
 C    -1.070555     4.374128     1.176022
 H    -0.429575     5.161588     0.773300
 C    -2.966061     3.668092     2.486280
 H    -3.822362     3.916779     3.119275
 C    -2.177657     4.690013     1.960816
 H    -2.420903     5.732435     2.178201
 H     1.096906     0.317191     2.351256
 H     1.168009    -1.424341     2.497868
 C     3.128147    -0.491568     2.606868
 H     3.616355    -1.466055     2.447729
 H     3.724808     0.228047     2.026319
 C     3.175891    -0.119412     4.081401
 H     2.572507    -0.837479     4.666190
 H     2.688835     0.863062     4.227165
 C     4.590415    -0.067894     4.641577
 H     5.071674    -1.050979     4.495540
 H     5.186485     0.645897     4.045431
 C     4.645899     0.317668     6.110761
 H     5.680461     0.346791     6.484802
 H     4.087433    -0.399766     6.733328
 H     4.202790     1.312375     6.280083
 C     3.456062    -1.390346    -1.397334
 C     2.695603    -2.029661    -2.374935
 H     1.690306    -2.384224    -2.127934
 C     4.750432    -0.916808    -1.665535
 C     5.542933    -0.234795    -0.593729
 H     5.049011     0.694042    -0.267397
 H     5.638873    -0.873743     0.297233
 H     6.549357     0.019554    -0.952358
 C     3.216872    -2.190724    -3.657474
 H     2.614953    -2.686652    -4.422327
 C     5.246526    -1.095950    -2.959475
 H     6.250779    -0.729187    -3.188729
 C     4.493677    -1.720794    -3.953547
 H     4.907785    -1.842263    -4.956881
 C     2.421507     1.755277    -0.395517
 C     2.891852     2.360182     0.770068
 H     2.454930     2.086525     1.730321
 C     2.889301     2.148437    -1.660923
 C     2.305308     1.564667    -2.909492
 H     2.584640     0.507563    -3.031783
 H     1.205735     1.598048    -2.883342
 H     2.652739     2.113076    -3.795076
 C     3.898370     3.320796     0.698312
 H     4.269814     3.784368     1.614960
 C     3.898128     3.115902    -1.702284
 H     4.282137     3.426641    -2.677590
 C     4.414134     3.689724    -0.541534
 H     5.205416     4.439498    -0.608410
