 106
scf done:    -2465.449868
 C     1.260876    -3.355333    -0.055573
 H     1.866121    -3.763634    -0.882794
 H     1.967579    -3.097519     0.748476
 C     0.289985    -4.416368     0.447342
 H    -0.338389    -4.818480    -0.363798
 H     0.810036    -5.277794     0.911176
 H    -0.403163    -4.015626     1.207159
Rh     0.149087    -1.637962    -0.579854
 C     1.172236     0.552013     2.079665
 C     3.353969    -0.864143     0.839585
 C     1.995703     1.237299    -0.601278
 C    -1.279562     1.414301    -1.880775
 C    -3.070474    -0.754863    -1.449827
 C    -2.097744     0.576248     0.880701
 P    -1.514736    -0.028924    -0.755077
 P     1.666513    -0.212831     0.482838
 C    -0.429320    -2.567597    -2.052885
 O    -0.691939    -3.043139    -3.073545
 C     0.979459     1.920877     2.271918
 H     1.226106     2.616068     1.469260
 C     0.816690    -0.324668     3.127788
 O     1.023644    -1.631560     2.882402
 C     0.584689    -2.595503     3.799956
 H     1.111530    -2.507499     4.765952
 H     0.808390    -3.571393     3.352838
 H    -0.502685    -2.521761     3.973042
 C     0.441795     2.422119     3.459232
 H     0.302974     3.497968     3.586347
 C     0.270407     0.167798     4.315945
 H    -0.013767    -0.511965     5.119553
 C     0.085489     1.541956     4.474745
 H    -0.343454     1.919246     5.406000
 H     3.216810    -1.665726     1.581647
 H     3.944376    -0.071882     1.324903
 C     4.020988    -1.401968    -0.420969
 H     3.260643    -1.921259    -1.027872
 H     4.382795    -0.562001    -1.041444
 C     5.184050    -2.360001    -0.160000
 H     4.783585    -3.193135     0.447821
 C     5.693721    -2.943824    -1.471875
 H     4.887263    -3.453221    -2.021591
 H     6.501352    -3.672931    -1.302045
 H     6.093861    -2.150376    -2.125518
 C     6.312516    -1.700632     0.624748
 H     7.140032    -2.405175     0.802570
 H     5.973613    -1.334294     1.605716
 H     6.722778    -0.839680     0.069497
 H     1.067735     1.827900    -0.585138
 H     2.046034     0.817226    -1.617156
 C     3.202211     2.117424    -0.299809
 H     3.302927     2.277901     0.786666
 H     4.127559     1.601016    -0.608937
 C     3.145146     3.483664    -0.989880
 H     2.235131     3.996758    -0.619955
 C     4.350036     4.330429    -0.598844
 H     4.427658     4.442974     0.494085
 H     4.295362     5.337933    -1.039863
 H     5.285152     3.864452    -0.951664
 C     3.020038     3.363667    -2.504528
 H     3.007419     4.357248    -2.979197
 H     2.097245     2.845721    -2.804133
 H     3.874932     2.806037    -2.923148
 C    -1.178580     1.101742    -3.242362
 H    -1.270898     0.057264    -3.552207
 C    -1.079193     2.757522    -1.501833
 O    -1.081668     3.032607    -0.176141
 C    -0.961705     4.357069     0.258025
 H     0.008245     4.798916    -0.031192
 H    -1.028141     4.330201     1.353098
 H    -1.774649     4.991800    -0.135132
 C    -0.940644     2.073807    -4.210703
 H    -0.871597     1.791531    -5.262965
 C    -0.847972     3.741114    -2.470046
 H    -0.701862     4.779954    -2.174426
 C    -0.784843     3.399262    -3.818985
 H    -0.597333     4.178604    -4.561198
 H    -2.837183    -1.086628    -2.473919
 H    -3.836272     0.032233    -1.530995
 C    -3.544220    -1.944126    -0.623749
 H    -2.662757    -2.551552    -0.348923
 H    -3.982995    -1.592067     0.327724
 C    -4.556387    -2.846179    -1.331882
 H    -4.077633    -3.198557    -2.264934
 C    -4.862183    -4.068612    -0.474873
 H    -3.944167    -4.626409    -0.232805
 H    -5.551592    -4.757604    -0.987199
 H    -5.334428    -3.772302     0.477100
 C    -5.833374    -2.102554    -1.706271
 H    -6.550836    -2.770425    -2.208056
 H    -5.636322    -1.259476    -2.385630
 H    -6.328221    -1.698720    -0.806297
 H    -1.270997     1.150740     1.316516
 H    -2.169607    -0.347504     1.478747
 C    -3.391915     1.373636     0.929064
 H    -3.396205     2.120676     0.119269
 H    -4.256235     0.711421     0.742173
 C    -3.605411     2.099327     2.260200
 H    -2.732691     2.763056     2.408709
 C    -4.856198     2.967465     2.202325
 H    -4.808928     3.686812     1.369373
 H    -4.996131     3.537680     3.134090
 H    -5.756950     2.348540     2.053962
 C    -3.654910     1.137090     3.441560
 H    -3.828568     1.677312     4.385476
 H    -2.714186     0.577706     3.551852
 H    -4.474460     0.408313     3.319526
