 100
scf done:    -2462.617437
 C     2.100824     0.016848     3.031386
 H     1.996780    -0.453082     4.018223
 H     3.066495    -0.291850     2.612195
 C     1.929692     1.529186     3.087567
 H     1.544456     1.881719     4.056164
 H     2.861982     2.075688     2.866939
 H     1.197168     1.895518     2.322710
Rh     0.481856    -0.252302     1.743225
 C     2.107972     0.892421    -1.322674
 C     3.617376    -1.007791     0.242555
 C     1.317868    -1.867168    -1.163388
 C    -2.542046    -1.428277     0.364396
 C    -2.602446     1.299556     1.342794
 C    -1.383976     0.720775    -1.175938
 P    -1.487257     0.077226     0.539052
 P     1.889876    -0.475571    -0.100840
 C    -0.321112    -1.344759     2.984488
 O    -0.769670    -2.171386     3.658264
 H     2.965474     0.685383    -1.983611
 H     1.208168     0.883997    -1.956850
 C     2.244759     2.251654    -0.652054
 H     1.321671     2.450178    -0.080812
 H     3.054850     2.237985     0.098158
 C     2.485182     3.378095    -1.645228
 H     1.718334     3.325678    -2.437757
 H     3.452359     3.219217    -2.156968
 C     2.468504     4.761489    -1.011434
 H     1.501545     4.908496    -0.497579
 H     3.233124     4.806505    -0.215882
 C     2.695359     5.886138    -2.008325
 H     2.677364     6.873167    -1.521851
 H     1.919322     5.886578    -2.790963
 H     3.669112     5.781951    -2.513549
 C     3.797148    -2.204090     0.947924
 H     2.924855    -2.781106     1.266161
 C     4.741231    -0.261395    -0.119896
 H     4.625301     0.679346    -0.663065
 C     5.078728    -2.646555     1.254428
 H     5.213006    -3.586365     1.795569
 C     6.038124    -0.685475     0.197384
 C     7.229958     0.152356    -0.166887
 H     6.998930     0.849578    -0.985078
 H     7.565899     0.754724     0.693784
 H     8.081380    -0.470809    -0.478398
 C     6.191936    -1.894009     0.882264
 H     7.196091    -2.248051     1.132105
 C     1.608830    -1.942958    -2.529059
 H     2.225599    -1.181767    -3.010010
 C     0.535412    -2.866568    -0.577288
 H     0.310812    -2.778761     0.491356
 C     1.086042    -2.985295    -3.291076
 H     1.299349    -3.034127    -4.361975
 C     0.010513    -3.925057    -1.326884
 C    -0.818862    -4.991451    -0.671455
 H    -0.203796    -5.873841    -0.428689
 H    -1.261956    -4.634569     0.269318
 H    -1.632570    -5.332580    -1.328831
 C     0.286448    -3.961501    -2.699012
 H    -0.127564    -4.768170    -3.310843
 H    -1.911189    -2.150102    -0.178909
 H    -2.629517    -1.826745     1.388537
 C    -3.907240    -1.309523    -0.291655
 H    -4.567768    -0.687822     0.334784
 H    -3.817604    -0.785181    -1.258802
 C    -4.555012    -2.669311    -0.519750
 H    -4.626594    -3.207380     0.443039
 H    -3.892582    -3.285283    -1.155799
 C    -5.934241    -2.587089    -1.158160
 H    -6.592554    -1.974523    -0.516953
 H    -5.856707    -2.039496    -2.114330
 C    -6.571391    -3.946493    -1.396290
 H    -7.566163    -3.855327    -1.858238
 H    -6.692675    -4.501442    -0.452058
 H    -5.950773    -4.566821    -2.063076
 C    -2.363813     1.654182     2.673021
 H    -1.506682     1.217766     3.194048
 C    -3.692159     1.870805     0.669134
 H    -3.870292     1.619303    -0.379333
 C    -3.211112     2.557466     3.315396
 H    -3.019559     2.834737     4.354818
 C    -4.548363     2.775719     1.299447
 C    -5.719989     3.368893     0.571437
 H    -5.693488     3.123840    -0.499602
 H    -6.672188     2.990329     0.977613
 H    -5.740740     4.465287     0.670098
 C    -4.291212     3.110714     2.636666
 H    -4.946934     3.822089     3.147242
 C    -1.307948    -0.148754    -2.270861
 H    -1.386734    -1.228999    -2.133186
 C    -1.248075     2.098634    -1.394657
 H    -1.301839     2.784114    -0.543900
 C    -1.095857     0.361796    -3.550041
 H    -1.021762    -0.325287    -4.396269
 C    -1.052709     2.624809    -2.674303
 C    -0.972463     4.108709    -2.888609
 H    -1.969929     4.526578    -3.104810
 H    -0.588425     4.625603    -1.997571
 H    -0.322688     4.360940    -3.739405
 C    -0.968590     1.733418    -3.752271
 H    -0.803333     2.122211    -4.760884
