 118
scf done:    -3518.915921
 C     1.783875    -2.922725     0.901841
 H     1.587138    -3.962568     0.586085
 H     2.665868    -2.615787     0.316367
 C     2.132106    -2.899411     2.382985
 H     1.315126    -3.303752     3.002990
 H     3.036627    -3.495553     2.613271
 H     2.330313    -1.877243     2.739711
Rh     0.092222    -1.711363     0.381699
 O     2.385938     0.384335     1.018112
 C     3.028884    -0.745477    -1.479403
 C     1.274260     1.407344    -1.290825
 O    -2.348212    -0.050699    -1.337858
 C    -3.235447    -0.894339     1.078196
 C    -1.339740     1.369395     0.851685
 P    -1.715748    -0.317138     0.197293
 P     1.679928    -0.147191    -0.388028
 C    -0.829953    -3.073282     1.186374
 O    -1.354476    -3.961622     1.702951
 C     3.632258     0.420963     1.535401
 C     4.561157    -0.604553     1.357273
 H     4.290774    -1.474251     0.758049
 C     3.946694     1.512637     2.352957
 H     3.186727     2.279867     2.500456
 C     5.829576    -0.529882     1.943122
 C     6.809873    -1.645626     1.721540
 H     6.442949    -2.584668     2.166269
 H     6.955649    -1.836202     0.646446
 H     7.788797    -1.420294     2.167550
 C     5.200769     1.581664     2.948393
 H     5.447849     2.433400     3.587793
 C     6.146672     0.577156     2.736627
 H     7.132299     0.644019     3.204195
 C     4.209722     0.004336    -1.645802
 O     4.213645     1.217260    -1.075457
 C     5.417110     1.916260    -0.921704
 H     5.179078     2.807214    -0.328573
 H     6.159733     1.314261    -0.371497
 H     5.835759     2.228168    -1.894039
 C     2.914408    -1.979591    -2.150732
 O     1.729884    -2.595728    -2.080377
 C     1.618326    -3.954318    -2.395665
 H     0.619302    -4.259764    -2.059165
 H     2.372892    -4.556343    -1.862653
 H     1.710217    -4.132022    -3.481908
 C     4.003135    -2.504577    -2.861749
 H     3.924690    -3.469676    -3.361012
 C     5.299255    -0.515665    -2.353733
 H     6.222340     0.053671    -2.454709
 C     5.181449    -1.771542    -2.941440
 H     6.028755    -2.182567    -3.496014
 C     1.588014     2.739781    -0.974798
 O     2.235529     2.987403     0.176937
 C     2.607266     4.299610     0.475608
 H     3.138219     4.262984     1.435375
 H     3.285606     4.718726    -0.289057
 H     1.731568     4.962411     0.579688
 C     0.594992     1.149700    -2.495869
 O     0.384805    -0.154534    -2.725427
 C    -0.393094    -0.575553    -3.807983
 H    -0.514582    -1.658866    -3.688302
 H     0.109822    -0.366116    -4.768496
 H    -1.384271    -0.097675    -3.791339
 C     0.226609     2.167643    -3.378268
 H    -0.299748     1.943968    -4.305055
 C     1.230193     3.768293    -1.861597
 H     1.474100     4.803753    -1.630427
 C     0.563829     3.472995    -3.046101
 H     0.300111     4.286737    -3.726509
 C    -3.645384     0.201356    -1.640144
 C    -4.472737     1.001293    -0.849674
 H    -4.076232     1.458344     0.057695
 C    -4.155229    -0.386128    -2.802821
 H    -3.503213    -1.031421    -3.393401
 C    -5.809028     1.216277    -1.199899
 C    -6.685612     2.036468    -0.297174
 H    -6.896705     1.491117     0.637848
 H    -6.198296     2.982725    -0.014718
 H    -7.648181     2.275207    -0.771301
 C    -5.477698    -0.156140    -3.166629
 H    -5.873481    -0.612532    -4.077645
 C    -6.305137     0.637352    -2.371947
 H    -7.346684     0.802742    -2.659388
 C    -3.888521    -0.266054     2.156672
 O    -3.496584     0.981234     2.467201
 C    -3.969764     1.607847     3.622277
 H    -3.422778     2.556760     3.699086
 H    -5.052393     1.819166     3.564356
 H    -3.771007     1.003527     4.524213
 C    -3.747704    -2.133356     0.638841
 O    -3.161210    -2.639618    -0.458206
 C    -3.489474    -3.926084    -0.899446
 H    -2.829516    -4.135039    -1.750910
 H    -4.539130    -3.983085    -1.235714
 H    -3.309666    -4.677992    -0.113081
 C    -4.800695    -2.771036     1.301980
 H    -5.170817    -3.736781     0.961730
 C    -4.937687    -0.902211     2.832908
 H    -5.425765    -0.417386     3.677293
 C    -5.373733    -2.150079     2.403850
 H    -6.193676    -2.642412     2.932182
 C    -0.736640     1.381284     2.126022
 O    -0.685971     0.189929     2.739804
 C     0.198798    -0.014358     3.808345
 H     0.209259    -1.094493     3.994892
 H     1.217806     0.312145     3.546459
 H    -0.138868     0.510422     4.719646
 C    -1.507721     2.600788     0.193567
 O    -2.059127     2.586409    -1.030707
 C    -2.526614     3.772530    -1.602109
 H    -3.035482     3.484788    -2.530911
 H    -1.704102     4.464814    -1.846188
 H    -3.249013     4.282539    -0.940277
 C    -1.102102     3.797027     0.806886
 H    -1.241589     4.747224     0.293489
 C    -0.287107     2.562328     2.721226
 H     0.186930     2.544274     3.701978
 C    -0.492305     3.764764     2.053999
 H    -0.168161     4.700184     2.517599
