 100
scf done:    -2462.616848
 C     1.904490    -2.522663    -1.865540
 H     1.689429    -3.009916    -2.829490
 H     2.868483    -2.008666    -1.996230
 C     1.997901    -3.584314    -0.778794
 H     2.790653    -4.328721    -0.985771
 H     2.230749    -3.154487     0.211797
 H     1.054056    -4.144545    -0.671217
Rh     0.382637    -1.191563    -1.259365
 C     1.937802    -0.200052     1.960574
 C     3.732596    -0.464547    -0.218073
 C     1.941458     1.716547    -0.224477
 C    -1.510101     1.567637     0.145098
 C    -3.029334    -0.290138    -1.420582
 C    -2.048609    -1.189870     1.096946
 P    -1.530575    -0.205841    -0.366858
 P     1.963616    -0.087918     0.105748
 C    -0.456719    -1.649661    -2.831538
 O    -0.933843    -1.854220    -3.858372
 H     2.892616     0.191664     2.349970
 H     1.931156    -1.280923     2.174715
 C     0.759253     0.474935     2.642651
 H     0.734939     1.540110     2.360035
 H    -0.180513     0.034492     2.276834
 C     0.761873     0.393375     4.172232
 H     1.680085     0.894082     4.534707
 C    -0.441135     1.153516     4.720570
 H    -0.447757     2.200012     4.377298
 H    -0.448657     1.159376     5.821476
 H    -1.380015     0.684650     4.380361
 C     0.770934    -1.041120     4.687892
 H     0.741068    -1.063099     5.788343
 H     1.670896    -1.591572     4.374493
 H    -0.107159    -1.591875     4.313378
 C     4.454169    -1.377907     0.554654
 H     3.997098    -1.855610     1.423391
 C     4.366095     0.110719    -1.328116
 H     3.820995     0.821693    -1.953765
 C     5.770968    -1.702217     0.229405
 H     6.313681    -2.420464     0.850248
 C     5.678579    -0.214122    -1.644828
 H     6.149926     0.251560    -2.515110
 C     6.407932    -1.129543    -0.873355
 C     7.821240    -1.481398    -1.233986
 H     7.867971    -1.969704    -2.220697
 H     8.455478    -0.582539    -1.289045
 H     8.267070    -2.166260    -0.499238
 C     2.527440     2.651248     0.637205
 H     3.032185     2.319996     1.548160
 C     1.341331     2.173419    -1.401662
 H     0.887189     1.432976    -2.071218
 C     2.476552     4.010106     0.344277
 H     2.928661     4.726705     1.035776
 C     1.305601     3.534422    -1.696753
 H     0.831741     3.872130    -2.622852
 C     1.856810     4.477629    -0.822762
 C     1.760530     5.947790    -1.104150
 H     2.663148     6.482796    -0.774177
 H     1.613837     6.146061    -2.175305
 H     0.905065     6.390348    -0.566305
 H    -1.317153     2.107118    -0.797219
 H    -0.579664     1.686248     0.712962
 C    -2.680601     2.191902     0.882988
 H    -3.630239     1.907061     0.398449
 H    -2.721427     1.795952     1.912654
 C    -2.604704     3.721418     0.947567
 H    -2.617806     4.093093    -0.095117
 C    -3.829234     4.282447     1.660336
 H    -4.762812     3.951027     1.179264
 H    -3.824194     5.383537     1.664756
 H    -3.857861     3.946169     2.710379
 C    -1.315915     4.213477     1.598476
 H    -1.302321     5.312779     1.663675
 H    -0.420218     3.905976     1.038469
 H    -1.222544     3.819924     2.625045
 C    -3.388248     0.763914    -2.266983
 H    -2.823617     1.699129    -2.255544
 C    -3.774324    -1.474570    -1.486495
 H    -3.509655    -2.317032    -0.842441
 C    -4.465260     0.640254    -3.141801
 H    -4.727926     1.481283    -3.789673
 C    -4.846618    -1.592190    -2.363216
 H    -5.412607    -2.527657    -2.393289
 C    -5.213679    -0.538464    -3.209534
 C    -6.351434    -0.686553    -4.176347
 H    -7.200360    -1.218998    -3.721789
 H    -6.709749     0.289894    -4.532108
 H    -6.040570    -1.267091    -5.060938
 C    -3.210154    -0.944391     1.839798
 H    -3.888763    -0.142248     1.546255
 C    -1.247669    -2.280675     1.458347
 H    -0.357502    -2.498926     0.855807
 C    -3.525292    -1.734408     2.942064
 H    -4.433473    -1.521314     3.512945
 C    -1.575169    -3.077065     2.551340
 H    -0.934436    -3.924865     2.809494
 C    -2.710142    -2.807359     3.324936
 C    -3.029663    -3.631711     4.536620
 H    -2.773669    -4.690274     4.382933
 H    -2.451698    -3.280913     5.408334
 H    -4.094641    -3.568545     4.801295
