  62
scf done:    -1765.182777
 C    -1.565731    -3.736045     0.513366
 H    -1.125556    -4.731155     0.685619
 H    -2.054805    -3.478113     1.467604
 C    -2.591608    -3.851480    -0.607829
 H    -3.369412    -4.609441    -0.392477
 H    -3.123743    -2.903945    -0.803500
 H    -2.119897    -4.138614    -1.561077
Rh    -0.079647    -2.277881     0.070847
 C    -2.449456     0.134051    -0.878134
 C    -3.102867    -1.075013     1.661300
 C    -1.051285     0.830170     1.579490
 C     2.542280    -0.113236     0.942922
 C     2.919935    -1.496595    -1.555219
 C     1.202933     0.716734    -1.503238
 P     1.585390    -0.788160    -0.513233
 P    -1.657336    -0.621884     0.631667
 C     1.024254    -3.734211    -0.146512
 O     1.709314    -4.654664    -0.240469
 H    -1.619026     0.425551    -1.536736
 H    -2.962835    -0.702683    -1.376550
 C    -3.377419     1.281347    -0.630201
 C    -4.740723     1.071930    -0.392929
 H    -5.146542     0.057729    -0.431839
 C    -2.889074     2.593854    -0.593351
 H    -1.826976     2.769805    -0.791427
 C    -5.579822     2.149035    -0.115486
 H    -6.642876     1.974920     0.068284
 C    -3.715811     3.686652    -0.319763
 C    -3.171255     5.085832    -0.318431
 H    -2.077542     5.094337    -0.207795
 H    -3.411772     5.602829    -1.262225
 H    -3.602750     5.684715     0.497407
 C    -5.073085     3.444834    -0.073678
 H    -5.739378     4.283431     0.146517
 H    -2.737568    -1.449484     2.628265
 H    -3.755074    -0.205203     1.827083
 H    -3.674729    -1.878999     1.179172
 H    -1.860082     1.548805     1.778162
 H    -0.643680     0.465263     2.533656
 H    -0.244950     1.341829     1.037450
 H     1.790961     0.301323     1.630616
 H     2.953161    -1.007460     1.436995
 C     3.607773     0.889359     0.632590
 C     4.917113     0.490476     0.339332
 H     5.181604    -0.569165     0.382833
 C     3.304476     2.256594     0.588338
 H     2.286820     2.580971     0.828583
 C     5.882369     1.436475     0.000870
 H     6.901486     1.113803    -0.226176
 C     4.259531     3.219986     0.253837
 C     3.912961     4.680935     0.245985
 H     2.827077     4.838881     0.178652
 H     4.261630     5.173520     1.168894
 H     4.387881     5.202664    -0.598240
 C     5.557653     2.789205    -0.047285
 H     6.321722     3.523947    -0.315711
 H     3.375025    -2.352991    -1.037231
 H     2.467259    -1.869649    -2.485581
 H     3.696660    -0.755533    -1.795893
 H     0.495887     1.370158    -0.973784
 H     2.111017     1.293392    -1.733872
 H     0.730957     0.391843    -2.442391
