 104
scf done:    -2763.275305
 C    -1.427505    -2.378690    -2.399011
 H    -1.799897    -3.401342    -2.225004
 H    -2.321705    -1.740886    -2.479585
 C    -0.629100    -2.321271    -3.693463
 H     0.195174    -3.052993    -3.703697
 H    -1.259451    -2.529318    -4.579508
 H    -0.175368    -1.327929    -3.859872
Rh    -0.140023    -1.651030    -0.899072
 C    -1.778815    -0.092665     1.735793
 C    -1.773330     1.504196    -0.647679
 C    -3.530367    -0.751515    -0.383943
 C     2.291303    -1.486064     1.682958
 C     3.108824    -0.555291    -0.952551
 C     1.538064     1.135864     0.667816
 P     1.659585    -0.624507     0.173833
 P    -1.790673    -0.241966    -0.106069
 C     0.593155    -3.342222    -0.808539
 O     0.917492    -4.423881    -0.563579
 H    -2.687702     0.453705     2.039422
 H    -0.911763     0.538001     1.981397
 C    -1.706628    -1.432483     2.450119
 H    -2.517545    -2.085543     2.087970
 H    -0.769847    -1.942531     2.163623
 C    -1.815698    -1.342477     3.974965
 H    -2.810515    -0.917193     4.207967
 C    -1.747079    -2.736635     4.587382
 H    -2.516360    -3.400088     4.163027
 H    -1.889663    -2.706993     5.678834
 H    -0.765873    -3.200701     4.390936
 C    -0.766976    -0.426135     4.596059
 H    -0.867959    -0.396125     5.692086
 H    -0.847457     0.607891     4.228134
 H     0.251389    -0.785104     4.372743
 C    -1.432577     1.766518    -1.985387
 H    -1.226524     0.926958    -2.656610
 C    -2.017846     2.589980     0.193908
 H    -2.285899     2.428396     1.239360
 C    -1.322022     3.064700    -2.454817
 H    -1.038722     3.275548    -3.487740
 C    -1.897875     3.902679    -0.260333
 H    -2.059829     4.724654     0.436481
 C    -1.527028     4.146972    -1.585579
 O    -1.316552     5.374718    -2.097632
 C    -1.366363     6.477676    -1.232026
 H    -0.650685     6.367138    -0.398521
 H    -1.094908     7.357211    -1.829499
 H    -2.379694     6.629649    -0.819696
 C    -3.852915    -2.116178    -0.298846
 H    -3.048422    -2.842792    -0.154959
 C    -4.559949     0.158652    -0.623435
 H    -4.333266     1.224231    -0.710624
 C    -5.162778    -2.548184    -0.423788
 H    -5.421336    -3.606875    -0.361486
 C    -5.882803    -0.264104    -0.764446
 H    -6.659693     0.475640    -0.959413
 C    -6.191794    -1.624201    -0.658332
 O    -7.434107    -2.133856    -0.776026
 C    -8.499118    -1.263242    -1.030965
 H    -8.370143    -0.723791    -1.986121
 H    -9.403962    -1.881226    -1.092802
 H    -8.628519    -0.522484    -0.221771
 H     2.307035    -2.550365     1.394583
 H     1.477605    -1.398974     2.421216
 C     3.634299    -1.072588     2.261613
 H     4.401385    -1.157898     1.475712
 H     3.614720    -0.006788     2.551884
 C     4.085928    -1.905424     3.465784
 H     4.128158    -2.961407     3.138781
 C     5.489950    -1.490394     3.890725
 H     6.204160    -1.576518     3.057136
 H     5.861079    -2.113136     4.719442
 H     5.501441    -0.441369     4.231503
 C     3.115285    -1.819767     4.638411
 H     3.489840    -2.386145     5.505018
 H     2.124017    -2.226758     4.388871
 H     2.978866    -0.773030     4.960637
 C     4.198941     0.302183    -0.716670
 H     4.186154     0.973099     0.145255
 C     3.146143    -1.364576    -2.089891
 H     2.294108    -2.015320    -2.303499
 C     5.286468     0.328826    -1.573212
 H     6.134624     0.992844    -1.395915
 C     4.234628    -1.348594    -2.962322
 H     4.219807    -1.995008    -3.839983
 C     5.316924    -0.501677    -2.704666
 O     6.412662    -0.407841    -3.480457
 C     6.497791    -1.206313    -4.628113
 H     5.685930    -0.985146    -5.343099
 H     7.460371    -0.975123    -5.101503
 H     6.469785    -2.282392    -4.382230
 C     1.515094     2.110524    -0.346416
 H     1.646624     1.808936    -1.388423
 C     1.363209     1.561411     1.984329
 H     1.379225     0.841154     2.804777
 C     1.329835     3.448916    -0.053177
 H     1.310251     4.201334    -0.843069
 C     1.151664     2.908622     2.294915
 H     1.009715     3.195380     3.337194
 C     1.127697     3.858770     1.271932
 O     0.903244     5.178857     1.459823
 C     0.686476     5.643382     2.762483
 H     1.556599     5.454802     3.415376
 H     0.527174     6.726817     2.690027
 H    -0.205782     5.180283     3.220479
