  82
scf done:    -2151.174774
 C    -2.099770    -2.792053     0.652745
 H    -2.079362    -3.408667     1.566978
 H    -2.966424    -2.122763     0.753322
 C    -2.293170    -3.680531    -0.569465
 H    -1.523143    -4.465634    -0.637161
 H    -3.276455    -4.191183    -0.564942
 H    -2.237544    -3.106417    -1.510666
Rh    -0.354242    -1.651716     0.339028
 C    -1.831716     1.567543    -0.299394
 C    -3.017904     0.192423     1.945399
 C    -0.212901     1.305079     2.104407
 C     2.645461     0.374509     0.285285
 C     2.684362    -1.964560    -1.344843
 C     0.889424     0.321598    -2.187549
 P     1.485456    -0.657044    -0.717034
 P    -1.400016     0.356932     1.019981
 C     0.559130    -3.165555     0.808707
 O     1.161947    -4.035463     1.275890
 C    -1.228839     2.815552    -0.465896
 H    -0.486839     3.153653     0.256450
 C    -2.765033     1.151555    -1.275104
 O    -3.296947    -0.071771    -1.085175
 C    -4.135678    -0.631016    -2.058581
 H    -5.066831    -0.050184    -2.176406
 H    -4.380678    -1.641751    -1.710424
 H    -3.626659    -0.701922    -3.035100
 C    -1.536413     3.639827    -1.550008
 H    -1.054183     4.614791    -1.648830
 C    -3.082080     1.971147    -2.360736
 H    -3.803356     1.642933    -3.109350
 C    -2.465214     3.215204    -2.493024
 H    -2.718785     3.851279    -3.344357
 H    -3.575179    -0.470935     1.267245
 C    -2.807415    -0.556108     3.255947
 H    -3.774548    -0.905447     3.651312
 H    -2.159277    -1.434067     3.115662
 H    -2.353644     0.088617     4.024161
 C    -3.849708     1.457385     2.114444
 H    -3.984188     1.994048     1.164011
 H    -4.851331     1.188971     2.489428
 H    -3.410042     2.157955     2.837095
 H     0.521976     1.645353     1.355980
 C    -0.752633     2.521064     2.849833
 H     0.088754     3.101918     3.262776
 H    -1.350261     3.193648     2.219371
 H    -1.379860     2.216849     3.700578
 C     0.531865     0.370977     3.055555
 H     0.845489    -0.546840     2.536772
 H     1.426312     0.876633     3.452263
 H    -0.098469     0.077038     3.907287
 C     3.358639    -0.331070     1.264538
 H     3.208548    -1.410498     1.350211
 C     2.810089     1.774269     0.248257
 O     2.069341     2.463015    -0.649634
 C     2.233403     3.846057    -0.775849
 H     1.959389     4.380155     0.151304
 H     1.559068     4.163591    -1.581238
 H     3.269487     4.113060    -1.047335
 C     4.236776     0.293448     2.144910
 H     4.775967    -0.296470     2.888477
 C     3.687913     2.411096     1.134229
 H     3.815174     3.492930     1.096178
 C     4.402962     1.672363     2.073432
 H     5.084079     2.186332     2.755610
 H     2.865290    -2.549492    -0.427291
 C     2.004765    -2.905371    -2.334083
 H     2.612363    -3.815025    -2.462773
 H     1.006482    -3.209662    -1.983625
 H     1.898855    -2.440455    -3.325830
 C     4.034648    -1.478166    -1.857891
 H     4.530746    -0.802463    -1.146987
 H     4.699937    -2.342918    -2.015834
 H     3.947406    -0.954458    -2.819075
 H     0.468892     1.211110    -1.698822
 C     1.925993     0.780739    -3.202674
 H     1.471537     1.518879    -3.884343
 H     2.793777     1.255996    -2.726447
 H     2.283148    -0.054657    -3.823238
 C    -0.271242    -0.415534    -2.856018
 H    -0.986532    -0.797170    -2.109185
 H    -0.808312     0.275179    -3.525259
 H     0.069514    -1.270439    -3.456475
