  62
scf done:    -2137.764367
 C    -1.430965    -3.804265     0.190216
 H    -1.037192    -4.725672     0.644550
 H    -2.255853    -3.475695     0.843356
 C    -1.934039    -4.070137    -1.220458
 H    -2.709563    -4.859258    -1.237963
 H    -2.384595    -3.168903    -1.666024
 H    -1.125288    -4.406489    -1.890467
Rh     0.066923    -2.322698    -0.066955
 O    -1.284007     0.713448    -0.093468
 O    -3.084264    -1.099664    -0.205468
 O    -1.941863    -0.690737     1.938245
 O     1.735785     0.377202     0.706027
 O     3.163494    -1.064355    -0.701216
 O     1.258301     0.165472    -1.847124
 P     1.564957    -0.710265    -0.514055
 P    -1.587581    -0.856853     0.353033
 C     1.276589    -3.587283     0.580693
 O     1.980844    -4.315311     1.121646
 C    -2.203323     1.723057     0.021357
 C    -2.962385     2.068769    -1.094384
 H    -2.813303     1.503248    -2.016664
 C    -2.351880     2.407250     1.228434
 H    -1.748966     2.118725     2.090150
 C    -3.898444     3.105485    -1.023876
 C    -4.699113     3.487638    -2.234936
 H    -5.051539     2.599418    -2.780154
 H    -5.574495     4.094643    -1.964593
 H    -4.089457     4.078625    -2.938265
 C    -3.282280     3.440315     1.302243
 H    -3.412606     3.982281     2.242029
 C    -4.050880     3.784271     0.191253
 H    -4.781130     4.594118     0.266130
 C    -4.293146    -0.846782     0.491493
 H    -4.293377    -1.348725     1.469213
 H    -4.451967     0.232108     0.639514
 H    -5.101952    -1.251319    -0.131190
 C    -0.904278    -0.741598     2.902608
 H    -0.318322    -1.668319     2.794628
 H    -0.220612     0.116085     2.797546
 H    -1.383869    -0.713159     3.889765
 C     2.320550     1.615672     0.597555
 C     3.706848     1.742113     0.623738
 H     4.311415     0.836732     0.703457
 C     1.495081     2.734321     0.490355
 H     0.414030     2.595846     0.463940
 C     4.300742     3.006005     0.529450
 C     5.794934     3.144658     0.580522
 H     6.292113     2.362734    -0.012738
 H     6.122523     4.123403     0.202688
 H     6.162986     3.048375     1.615383
 C     2.083944     3.991769     0.397161
 H     1.450240     4.877347     0.306675
 C     3.471987     4.127797     0.411941
 H     3.921376     5.121169     0.333122
 C     3.534406    -2.071558    -1.618112
 H     2.823964    -2.915956    -1.598012
 H     3.582844    -1.676932    -2.647077
 H     4.528367    -2.438263    -1.328426
 C     2.146980     1.051009    -2.505257
 H     1.906742     2.091067    -2.241345
 H     3.194233     0.851043    -2.233822
 H     2.016806     0.910421    -3.588210
