  92
scf done:    -2606.274469
 C    -0.896203    -3.321362    -1.387861
 H    -0.699259    -3.601804    -2.434674
 H    -0.181930    -3.903982    -0.781254
 C    -2.318542    -3.685130    -0.981468
 H    -3.068336    -3.198270    -1.625423
 H    -2.494872    -4.775770    -1.038569
 H    -2.540172    -3.385918     0.056127
Rh    -0.761938    -1.224854    -1.072176
 C     2.465069    -2.426852    -0.623993
 O     1.678443    -0.370512     0.944928
 O     0.867695    -2.815179     1.424877
 C     0.393370     2.159963    -0.981145
 O    -2.223977     1.771408    -0.973854
 O    -0.961881     1.100956     1.177100
 P    -0.864705     0.942923    -0.480262
 P     1.008389    -1.703478     0.187621
 C    -1.489551    -1.004519    -2.793135
 O    -1.768173    -0.866379    -3.897476
 H     3.234982    -2.625943     0.139358
 H     2.129528    -3.399829    -1.017128
 C     2.985090    -1.534280    -1.742712
 H     2.151528    -1.304299    -2.429611
 H     3.310186    -0.567818    -1.321003
 C     4.138338    -2.157765    -2.514421
 H     3.811889    -3.123102    -2.941879
 H     4.959577    -2.399834    -1.815459
 C     4.667670    -1.263899    -3.626982
 H     3.840643    -1.019693    -4.316789
 H     4.988111    -0.300259    -3.192334
 C     5.818051    -1.882994    -4.403939
 H     6.178591    -1.213347    -5.199357
 H     5.514907    -2.829924    -4.878897
 H     6.671958    -2.105859    -3.743973
 C     2.881935    -0.295332     1.589198
 C     3.736113     0.752964     1.237041
 H     3.435460     1.436890     0.440576
 C     3.239416    -1.185625     2.604930
 H     2.558511    -1.993562     2.873194
 C     4.949961     0.909338     1.901179
 H     5.613348     1.731641     1.622729
 C     4.461414    -1.022267     3.255031
 H     4.740071    -1.720047     4.048326
 C     5.319691     0.020918     2.910487
 H     6.273102     0.143043     3.428683
 C    -0.343217    -3.001642     2.044122
 C    -0.738334    -4.311618     2.310003
 H    -0.078303    -5.130552     2.018619
 C    -1.158476    -1.924234     2.393917
 H    -0.836537    -0.899828     2.195352
 C    -1.968782    -4.545562     2.918069
 H    -2.282167    -5.572545     3.119869
 C    -2.393351    -2.173917     2.992401
 H    -3.033890    -1.330287     3.261767
 C    -2.805002    -3.479796     3.253478
 H    -3.773017    -3.668219     3.722696
 H     1.242885     1.945116    -0.311279
 H     0.709764     1.817997    -1.981424
 C     0.046808     3.642837    -0.998057
 H    -0.771216     3.814172    -1.715539
 H    -0.340974     3.956208    -0.017682
 C     1.249228     4.505326    -1.353719
 H     1.642132     4.209374    -2.343895
 H     2.064272     4.304257    -0.633885
 C     0.938344     5.995402    -1.352601
 H     0.119367     6.193693    -2.066342
 H     0.543762     6.276105    -0.360105
 C     2.138246     6.863733    -1.693728
 H     1.882328     7.934041    -1.682381
 H     2.531963     6.626932    -2.695407
 H     2.959070     6.710855    -0.974371
 C    -3.439211     1.142927    -1.040199
 C    -3.795246     0.115336    -0.161568
 H    -3.105905    -0.203772     0.622532
 C    -4.323848     1.561720    -2.033622
 H    -4.014301     2.360790    -2.709555
 C    -5.037105    -0.502294    -0.300076
 H    -5.302818    -1.315936     0.378909
 C    -5.566555     0.945398    -2.151652
 H    -6.255798     1.272545    -2.933744
 C    -5.926793    -0.092106    -1.290703
 H    -6.898304    -0.579917    -1.394142
 C    -0.850816     2.283046     1.860899
 C    -1.955331     3.125613     1.988221
 H    -2.903562     2.835701     1.532564
 C     0.374530     2.612894     2.440073
 H     1.211658     1.920154     2.338894
 C    -1.815773     4.328311     2.677346
 H    -2.675271     4.995989     2.773249
 C     0.500668     3.818947     3.125825
 H     1.460545     4.083481     3.575782
 C    -0.589020     4.682718     3.239980
 H    -0.485104     5.628569     3.776087
