 100
scf done:    -2462.621663
 C    -0.767269     1.170639    -3.459419
 H    -0.178489     0.870582    -4.345225
 H    -1.628568     0.480689    -3.448454
 C    -1.290704     2.587746    -3.656012
 H    -0.476199     3.317340    -3.787193
 H    -1.942597     2.670510    -4.545894
 H    -1.884901     2.934413    -2.795869
Rh     0.550525     0.789221    -1.825824
 C    -2.816643     0.701451    -0.880851
 C    -1.773306    -1.817773    -1.910774
 C    -1.232720    -1.047345     0.852092
 C     2.296943    -1.150265     0.808596
 C     3.818508    -0.097311    -1.398392
 C     2.892385     1.631453     0.711169
 P     2.286363     0.259440    -0.380266
 P    -1.296804    -0.329346    -0.884690
 C     1.630491     2.057956    -2.605274
 O     2.268228     2.917324    -3.035036
 H    -3.642564     0.111243    -0.455430
 H    -3.055503     0.891478    -1.938029
 C    -2.655842     2.008828    -0.115474
 H    -2.193217     1.810507     0.861863
 H    -1.950514     2.664044    -0.655503
 C    -3.982366     2.734189     0.124290
 H    -4.652937     2.014770     0.631257
 C    -3.784926     3.915533     1.066178
 H    -3.369847     3.586760     2.031511
 H    -4.736166     4.432487     1.267421
 H    -3.092382     4.655717     0.630412
 C    -4.650066     3.173229    -1.173867
 H    -5.611848     3.672206    -0.977293
 H    -4.851202     2.324060    -1.844404
 H    -4.010628     3.884632    -1.722661
 H    -0.886892    -2.470411    -1.902673
 H    -1.869512    -1.436297    -2.938128
 C    -2.996256    -2.565786    -1.485441
 C    -4.277084    -2.113212    -1.833955
 H    -4.378938    -1.230776    -2.470014
 C    -2.896630    -3.721338    -0.698915
 H    -1.908609    -4.110016    -0.439188
 C    -5.416985    -2.772499    -1.381419
 H    -6.404816    -2.398863    -1.661515
 C    -4.035217    -4.386074    -0.247080
 H    -3.930588    -5.282872     0.367983
 C    -5.301375    -3.907719    -0.578490
 H    -6.195923    -4.423775    -0.222588
 H    -0.256988    -0.750524     1.250618
 H    -1.216850    -2.140946     0.731472
 C    -2.296562    -0.651671     1.833059
 C    -3.602634    -1.153825     1.762644
 H    -3.865646    -1.877337     0.988703
 C    -1.985801     0.255319     2.853587
 H    -0.970474     0.652579     2.927379
 C    -4.573077    -0.738583     2.672324
 H    -5.586309    -1.140903     2.597085
 C    -2.955249     0.672500     3.762298
 H    -2.687566     1.386853     4.544838
 C    -4.256890     0.181731     3.671252
 H    -5.020784     0.508864     4.380644
 H     1.635103    -0.868810     1.644408
 H     3.311841    -1.226107     1.230954
 C     1.853552    -2.463074     0.182765
 H     0.928211    -2.291225    -0.392255
 H     2.597464    -2.789947    -0.565534
 C     1.622837    -3.603757     1.175776
 H     0.844207    -3.267389     1.886536
 C     1.097879    -4.836970     0.450881
 H     0.183519    -4.611197    -0.119822
 H     0.863270    -5.650605     1.154159
 H     1.844299    -5.219337    -0.264945
 C     2.875594    -3.937809     1.978257
 H     2.686349    -4.764571     2.680034
 H     3.233004    -3.079650     2.566212
 H     3.696802    -4.249371     1.310898
 H     3.939009     0.781683    -2.049259
 H     3.539655    -0.932689    -2.058963
 C     5.079350    -0.384789    -0.644867
 C     5.431087    -1.693130    -0.285807
 H     4.795781    -2.524701    -0.600714
 C     5.933317     0.656545    -0.254561
 H     5.693167     1.682579    -0.545800
 C     6.581215    -1.951561     0.456702
 H     6.833002    -2.980907     0.723684
 C     7.085119     0.402192     0.486478
 H     7.736197     1.230598     0.776096
 C     7.410907    -0.903398     0.851324
 H     8.314084    -1.104041     1.432174
 H     3.168529     2.450991     0.028134
 H     3.808504     1.303816     1.225388
 C     1.869328     2.105804     1.700136
 C     1.993335     1.801082     3.061009
 H     2.836204     1.191027     3.398409
 C     0.780370     2.884698     1.284951
 H     0.652036     3.093585     0.218872
 C     1.075209     2.289900     3.990883
 H     1.195363     2.049272     5.049977
 C    -0.128966     3.383829     2.213119
 H    -0.961909     4.001920     1.873545
 C     0.018348     3.094950     3.570276
 H    -0.694303     3.493010     4.296685
