  88
scf done:    -2702.248780
 C    -1.676706    -0.497248    -3.141395
 H    -2.036475    -1.459534    -3.540047
 H    -2.573319     0.038229    -2.791417
 C    -0.985773     0.302354    -4.236268
 H    -0.172955    -0.267649    -4.714615
 H    -1.688985     0.599504    -5.037495
 H    -0.537485     1.236777    -3.853554
Rh    -0.264028    -0.668364    -1.587840
 C    -1.676529    -0.848748     1.600670
 C    -1.907164     1.767619     0.421652
 C    -3.590087    -0.396938    -0.422207
 C     2.401005    -1.843656     0.450701
 C     2.968179     0.436996    -1.266580
 C     1.531807     0.853114     1.129456
 P     1.624810    -0.329529    -0.268890
 P    -1.836883    -0.005606    -0.034885
 C     0.460551    -2.096580    -2.511012
 O     0.796205    -3.115147    -2.937438
 H    -2.567248    -0.601442     2.202401
 H    -0.804102    -0.396996     2.094743
 C    -1.523700    -2.357037     1.480166
 H    -2.350573    -2.761105     0.873265
 H    -0.605240    -2.581294     0.909131
 C    -1.509374    -3.102162     2.817800
 H    -2.482046    -2.911596     3.309751
 C    -1.391528    -4.602825     2.577867
 H    -2.194479    -4.969550     1.920042
 H    -1.442541    -5.167863     3.521325
 H    -0.430488    -4.846458     2.094350
 C    -0.413321    -2.617120     3.760124
 H    -0.430002    -3.178889     4.706682
 H    -0.518448    -1.550291     4.008797
 H     0.583729    -2.764517     3.312434
 C    -1.693177     2.695565    -0.607645
 H    -1.507418     2.332884    -1.623186
 C    -2.119519     2.241295     1.721152
 H    -2.277964     1.544399     2.545784
 C    -1.695907     4.062580    -0.353044
 H    -1.529189     4.795266    -1.144695
 C    -2.112357     3.607253     1.994850
 H    -2.250408     3.989762     3.007691
 C    -1.900345     4.499107     0.951764
 F    -1.873981     5.804460     1.209183
 C    -4.655604     0.423927    -0.037535
 H    -4.460132     1.375728     0.461960
 C    -3.866507    -1.603557    -1.079442
 H    -3.033371    -2.225479    -1.418232
 C    -5.972648     0.047822    -0.291899
 H    -6.814732     0.680179    -0.004784
 C    -5.177043    -1.996800    -1.329183
 H    -5.407088    -2.932172    -1.842371
 C    -6.214926    -1.162231    -0.930097
 F    -7.471551    -1.526934    -1.173936
 H     2.397563    -2.566091    -0.382540
 H     1.656658    -2.228089     1.166952
 C     3.787613    -1.746098     1.065021
 H     4.487075    -1.361757     0.305781
 H     3.794023    -1.006399     1.885645
 C     4.334753    -3.075456     1.595712
 H     4.339971    -3.790483     0.751700
 C     5.773324    -2.896358     2.067264
 H     6.413434    -2.498447     1.264615
 H     6.208057    -3.850130     2.403704
 H     5.823080    -2.191124     2.913852
 C     3.469104    -3.666692     2.703011
 H     3.910883    -4.594508     3.097509
 H     2.455434    -3.914483     2.353817
 H     3.373271    -2.961639     3.546665
 C     4.060264     1.081216    -0.664666
 H     4.114612     1.161818     0.423115
 C     2.908010     0.384439    -2.664448
 H     2.046885    -0.091003    -3.140961
 C     5.074115     1.641212    -1.434093
 H     5.928093     2.145524    -0.978308
 C     3.916114     0.940867    -3.448194
 H     3.876301     0.907560    -4.538328
 C     4.989087     1.559268    -2.820443
 F     5.955126     2.096687    -3.559494
 C     1.485554     0.452912     2.469025
 H     1.600705    -0.598789     2.736582
 C     1.382711     2.217472     0.833602
 H     1.412562     2.552769    -0.206024
 C     1.278459     1.380794     3.490014
 H     1.233134     1.076287     4.537249
 C     1.195150     3.155509     1.840116
 H     1.073686     4.216809     1.618301
 C     1.130645     2.720458     3.159277
 F     0.911835     3.610807     4.124809
