  68
scf done:    -2042.122500
 C     1.444446     0.142120    -2.127499
 H     1.071512     0.935751    -2.798928
 H     2.385973     0.520357    -1.695923
 C     1.765629    -1.110305    -2.931847
 H     0.905645    -1.459297    -3.525441
 H     2.602111    -0.944655    -3.636781
 H     2.065246    -1.947577    -2.280495
Rh     0.094475    -0.204111    -0.526303
 C     2.626688     1.191843     1.589422
 C     1.666023     2.943429    -0.494015
 C     0.049777     2.462838     1.836605
 C    -2.659589    -0.064901     1.835436
 C    -1.889908    -2.655097     0.915321
 C    -0.225272    -1.278962     2.836402
 P    -1.155903    -0.996464     1.255917
 P     1.099273     1.571025     0.597061
 C    -1.028749    -0.973487    -1.778157
 O    -1.808033    -1.307176    -2.558343
 H     3.088468     2.125558     1.945265
 H     2.285003     0.631030     2.474327
 C     3.603678     0.379433     0.791938
 C     3.355091    -0.975105     0.532859
 H     2.448645    -1.441384     0.929576
 C     4.741967     0.964564     0.229987
 H     4.951960     2.021530     0.415003
 C     4.218345    -1.728695    -0.253331
 H     4.028365    -2.782170    -0.464540
 C     5.615500     0.226203    -0.566830
 H     6.505417     0.675382    -1.010941
 C     5.340010    -1.114279    -0.798484
 F     6.169232    -1.828860    -1.557829
 H     2.409159     2.503902    -1.175873
 C     0.520243     3.559554    -1.282276
 H    -0.191012     4.088934    -0.628421
 H    -0.037000     2.779177    -1.822943
 H     2.193658     3.696193     0.114252
 H     0.894179     4.286735    -2.018630
 H    -0.188234     1.721171     2.615707
 C     0.614445     3.728236     2.462353
 H     0.786694     4.514569     1.712753
 H     1.568387     3.544108     2.979403
 H    -0.904429     2.672002     1.326216
 H    -0.085707     4.137367     3.206981
 H    -3.148343    -0.620322     2.650567
 H    -2.300866     0.887989     2.253607
 C    -3.624487     0.172200     0.710209
 C    -3.297626     1.036821    -0.343887
 H    -2.321483     1.529459    -0.350329
 C    -4.850625    -0.499158     0.660910
 H    -5.123388    -1.182244     1.470049
 C    -4.168505     1.233374    -1.409779
 H    -3.914734     1.895251    -2.239461
 C    -5.735450    -0.313825    -0.399561
 H    -6.694154    -0.833381    -0.444275
 C    -5.380572     0.553627    -1.423781
 F    -6.220119     0.737381    -2.442074
 H    -2.587995    -2.497300     0.077079
 C    -0.843184    -3.695860     0.550477
 H    -0.174340    -3.918788     1.397064
 H    -0.218201    -3.341219    -0.284515
 H    -2.498409    -2.978080     1.776531
 H    -1.315563    -4.641719     0.245400
 H     0.107744    -0.283735     3.173834
 C    -0.930634    -2.017438     3.962474
 H    -1.208925    -3.040409     3.668639
 H    -1.847580    -1.501485     4.285292
 H     0.695243    -1.809194     2.541004
 H    -0.276153    -2.098993     4.844112
