  94
scf done:    -2832.334676
 C     2.249661    -1.103068    -2.927583
 H     1.871281    -1.136000    -3.960662
 H     3.060449    -0.361610    -2.901840
 C     2.753851    -2.475746    -2.512935
 H     3.477677    -2.881450    -3.244757
 H     3.269101    -2.446473    -1.539222
 H     1.939456    -3.214831    -2.430325
Rh     0.692951    -0.683062    -1.570558
 C     2.642818    -0.756440     1.620618
 O     3.772043     0.039126    -0.688434
 O     2.009385     1.485940     0.522366
 C    -1.628738     0.387616     1.113400
 O    -2.508098    -0.769010    -1.215828
 O    -1.328419    -2.193378     0.590601
 P    -1.159013    -0.750845    -0.250439
 P     2.242018    -0.060086    -0.043747
 C    -0.251326    -0.023308    -3.036543
 O    -0.762016     0.553810    -3.887232
 H     2.821822    -1.829865     1.453360
 H     3.593691    -0.298481     1.934864
 C     1.578351    -0.533010     2.651582
 C     1.490032     0.693431     3.327752
 H     2.216757     1.478226     3.111301
 C     0.645096    -1.528437     2.942412
 H     0.721083    -2.486721     2.424022
 C     0.478316     0.905938     4.256421
 H     0.414962     1.862213     4.781417
 C    -0.384547    -1.327934     3.871560
 C    -1.400728    -2.402627     4.123500
 H    -0.920410    -3.362583     4.369484
 H    -2.070708    -2.139158     4.953603
 H    -2.017195    -2.568193     3.224920
 C    -0.456854    -0.095172     4.523358
 H    -1.252625     0.083474     5.251573
 C     4.890352     0.496053    -0.046197
 C     5.877834    -0.424224     0.309601
 H     5.718458    -1.480935     0.085582
 C     5.065098     1.857845     0.207743
 H     4.294736     2.567376    -0.096369
 C     7.041838     0.020512     0.931544
 H     7.814668    -0.700786     1.207654
 C     6.232871     2.289597     0.833681
 H     6.370566     3.355292     1.031452
 C     7.221739     1.377339     1.200010
 H     8.134632     1.723909     1.689100
 C     1.563812     2.561420    -0.190477
 C     0.951068     3.580516     0.540124
 H     0.828768     3.454227     1.617169
 C     1.729017     2.676424    -1.572312
 H     2.214365     1.878115    -2.135317
 C     0.488475     4.715654    -0.117365
 H    -0.003456     5.504945     0.455329
 C     1.246284     3.813579    -2.219644
 H     1.362048     3.896813    -3.302746
 C     0.627663     4.834789    -1.500368
 H     0.254751     5.722198    -2.016265
 H    -2.186504    -0.183692     1.867195
 H    -0.675421     0.689586     1.578264
 C    -2.419441     1.576645     0.640685
 C    -2.005767     2.339637    -0.458057
 H    -1.072033     2.103217    -0.974035
 C    -3.616851     1.905847     1.278754
 H    -3.951437     1.296500     2.123583
 C    -2.791491     3.397087    -0.903447
 H    -2.460912     3.984758    -1.762774
 C    -4.417993     2.966227     0.843970
 C    -5.721852     3.259075     1.527148
 H    -5.596200     3.340757     2.617875
 H    -6.166981     4.196386     1.164717
 H    -6.444849     2.447616     1.343142
 C    -3.988611     3.708092    -0.260331
 H    -4.602393     4.537578    -0.622547
 C    -3.814718    -0.653236    -0.819769
 C    -4.612358     0.243991    -1.530322
 H    -4.159609     0.817421    -2.340406
 C    -4.346282    -1.403337     0.230028
 H    -3.714920    -2.119502     0.756649
 C    -5.942806     0.414486    -1.165864
 H    -6.562034     1.128840    -1.713467
 C    -5.681048    -1.217262     0.589078
 H    -6.098733    -1.799081     1.414467
 C    -6.481764    -0.308438    -0.099920
 H    -7.526807    -0.169703     0.186188
 C    -0.904906    -3.382245     0.057581
 C    -0.836034    -3.606429    -1.320595
 H    -1.148926    -2.829664    -2.021416
 C    -0.562315    -4.400647     0.950058
 H    -0.654325    -4.220888     2.021236
 C    -0.385541    -4.838476    -1.793132
 H    -0.328909    -5.003441    -2.871599
 C    -0.122487    -5.629089     0.463914
 H     0.145493    -6.419105     1.169493
 C    -0.021303    -5.851580    -0.909037
 H     0.329120    -6.813967    -1.287504
