 106
scf done:    -2989.487713
 C    -2.457199    -1.044399    -2.848924
 H    -2.784831    -2.096747    -2.793705
 H    -3.334962    -0.462357    -2.529076
 C    -2.127413    -0.668820    -4.287227
 H    -1.309669    -1.274100    -4.709093
 H    -2.999411    -0.797261    -4.954822
 H    -1.816938     0.385452    -4.384220
Rh    -0.844448    -0.925144    -1.430152
 C    -2.199913     2.297104    -1.619611
 O    -3.683498     0.492294    -0.369885
 O    -1.630593     1.435158     0.896886
 C     1.760976     0.855519     0.061826
 O     0.810860    -1.105437     1.546588
 O     2.127924    -1.804238    -0.600370
 P     0.941778    -0.767324    -0.082727
 P    -2.067898     0.795501    -0.578686
 C    -0.028116    -2.214156    -2.513731
 O     0.467703    -2.984627    -3.199868
 H    -2.654116     1.956413    -2.562167
 H    -2.885447     3.011833    -1.142314
 C    -0.829817     2.875800    -1.831665
 C    -0.381236     3.958368    -1.069052
 H    -1.052267     4.427345    -0.344706
 C     0.047368     2.282268    -2.747232
 H    -0.291548     1.416236    -3.322147
 C     0.922176     4.427857    -1.224236
 H     1.270214     5.269956    -0.621204
 C     1.353950     2.748213    -2.920824
 C     2.265524     2.101476    -3.923099
 H     1.965562     1.062808    -4.123693
 H     2.242404     2.640994    -4.884452
 H     3.310571     2.099808    -3.578417
 C     1.783632     3.827889    -2.139533
 H     2.806733     4.198813    -2.246191
 C    -4.176501    -0.756017    -0.063154
 C    -3.459948    -1.659782     0.715142
 H    -2.479197    -1.393125     1.113818
 C    -5.445250    -1.061422    -0.575109
 C    -6.177564    -0.064185    -1.418878
 H    -7.155441    -0.455270    -1.730503
 H    -6.338844     0.881627    -0.878325
 H    -5.601055     0.184081    -2.324762
 C    -4.004487    -2.914679     0.984145
 H    -3.431844    -3.620610     1.587840
 C    -5.970200    -2.321501    -0.279769
 H    -6.957125    -2.582078    -0.671774
 C    -5.260815    -3.246507     0.486282
 H    -5.693550    -4.227511     0.694332
 C    -2.189762     2.509157     1.557207
 C    -3.555523     2.796882     1.497319
 H    -4.213214     2.158485     0.910391
 C    -1.323888     3.289944     2.343929
 C     0.135574     2.979294     2.431596
 H     0.303132     1.905735     2.581815
 H     0.661297     3.260448     1.504896
 H     0.606374     3.524709     3.260140
 C    -4.068612     3.888401     2.195219
 H    -5.137776     4.104762     2.137079
 C    -1.872552     4.371683     3.038869
 H    -1.206702     4.982452     3.654593
 C    -3.228059     4.683765     2.966930
 H    -3.624736     5.537575     3.520302
 H     1.920437     1.160046    -0.982728
 H     0.948660     1.499976     0.430309
 C     3.015284     1.016292     0.868802
 C     3.015214     0.906212     2.264884
 H     2.088707     0.668801     2.786957
 C     4.220777     1.294534     0.220357
 H     4.225762     1.385305    -0.870071
 C     4.198739     1.064304     2.977588
 H     4.190565     0.976853     4.066943
 C     5.422860     1.440147     0.919449
 C     6.706277     1.677681     0.180429
 H     7.063101     0.738663    -0.274315
 H     6.575258     2.405447    -0.634550
 H     7.496729     2.048701     0.848077
 C     5.395044     1.324949     2.312466
 H     6.322184     1.439417     2.880701
 C     0.110025    -2.182189     2.024623
 C     0.204792    -3.439583     1.427831
 H     0.830547    -3.570668     0.543692
 C    -0.685736    -1.967768     3.161673
 C    -0.801605    -0.596974     3.752677
 H    -1.492852    -0.592648     4.605793
 H     0.176056    -0.227287     4.100546
 H    -1.166908     0.122062     3.003834
 C    -0.490950    -4.515680     1.975991
 H    -0.414418    -5.499421     1.507707
 C    -1.364581    -3.067571     3.692550
 H    -1.989059    -2.918833     4.577539
 C    -1.270882    -4.333771     3.114760
 H    -1.812618    -5.174943     3.552959
 C     3.456077    -1.874836    -0.258318
 C     3.859904    -2.115898     1.051851
 H     3.108936    -2.208840     1.836548
 C     4.379506    -1.747904    -1.306083
 C     3.897538    -1.488091    -2.699823
 H     3.223171    -2.286123    -3.046188
 H     3.318660    -0.551905    -2.752308
 H     4.739159    -1.410771    -3.401429
 C     5.219051    -2.205172     1.340874
 H     5.540135    -2.373834     2.370903
 C     5.735363    -1.860323    -0.988974
 H     6.472180    -1.767904    -1.791917
 C     6.159136    -2.080911     0.320749
 H     7.225747    -2.156543     0.543926
