  80
scf done:    -2199.219959
 C    -1.472786     3.001759    -0.068057
 H    -1.285675     3.843372    -0.752895
 H    -2.504967     2.677696    -0.278162
 C    -1.368692     3.470061     1.376585
 H    -0.386596     3.919260     1.593288
 H    -2.133663     4.229996     1.628157
 H    -1.506141     2.643246     2.097982
Rh    -0.010372     1.474116    -0.143284
 C    -2.931058    -0.035706     1.024935
 C    -2.923336     0.618894    -1.849593
 C    -1.638005    -1.810763    -0.924028
 C     2.508227    -1.004645    -0.655554
 C     3.220303     1.258984     1.139164
 C     1.298975    -0.859823     2.097398
 P     1.777083     0.178147     0.614239
 P    -1.797270    -0.001820    -0.466712
 C     1.091927     2.652520    -1.023314
 O     1.728363     3.276846    -1.759481
 H    -2.382181    -0.603646     1.792536
 H    -2.939865     1.009218     1.368969
 C    -4.329140    -0.540374     0.859813
 C    -5.379018     0.355329     0.615900
 H    -5.173207     1.428911     0.598047
 C    -4.629383    -1.908753     0.903473
 H    -3.836751    -2.629932     1.115476
 C    -6.677480    -0.091553     0.389108
 H    -7.496933     0.602892     0.195369
 C    -5.922233    -2.374423     0.679250
 H    -6.161221    -3.438973     0.710230
 C    -6.931972    -1.457059     0.415204
 F    -8.170808    -1.895537     0.196416
 H    -3.508514     1.395178    -1.329315
 C    -2.135349     1.312666    -2.956997
 H    -2.828603     1.821753    -3.645779
 H    -1.435258     2.051255    -2.544742
 H    -1.548091     0.595890    -3.550774
 C    -3.917220    -0.383536    -2.431071
 H    -4.515807    -0.897480    -1.668199
 H    -4.619368     0.151220    -3.090844
 H    -3.419926    -1.145526    -3.049626
 H    -2.672883    -2.139950    -1.112989
 C    -0.834827    -1.956579    -2.213005
 H    -0.703790    -3.021518    -2.464679
 H    -1.322057    -1.471975    -3.068759
 H     0.162746    -1.506256    -2.106023
 C    -1.060121    -2.708377     0.161111
 H    -1.521114    -2.556094     1.148110
 H    -1.211625    -3.765027    -0.112295
 H     0.022195    -2.558460     0.270858
 H     1.965106    -1.953115    -0.531238
 H     2.156975    -0.573763    -1.604079
 C     3.986372    -1.235262    -0.736003
 C     4.803313    -0.305835    -1.395561
 H     4.348179     0.564869    -1.875615
 C     4.597724    -2.363051    -0.174523
 H     3.985926    -3.118867     0.322170
 C     6.184121    -0.466567    -1.455552
 H     6.822964     0.257851    -1.963832
 C     5.977290    -2.543970    -0.228824
 H     6.457251    -3.421099     0.208857
 C     6.757271    -1.584007    -0.861018
 F     8.078351    -1.746072    -0.911864
 H     3.624488     1.556544     0.154775
 C     2.772843     2.539250     1.844613
 H     3.611986     3.252225     1.877230
 H     1.930515     3.021096     1.330438
 H     2.467638     2.345728     2.882554
 C     4.339431     0.593464     1.934928
 H     4.715905    -0.327695     1.474419
 H     5.188514     1.290537     2.021321
 H     4.012423     0.360673     2.959425
 H     0.349315    -1.287843     1.746965
 C     2.204339    -2.018403     2.491677
 H     1.764329    -2.557325     3.347101
 H     2.311979    -2.747534     1.676049
 H     3.210560    -1.693064     2.786805
 C     0.946874     0.041164     3.277536
 H     0.308849     0.883342     2.964466
 H     0.398047    -0.535054     4.039614
 H     1.842757     0.454585     3.762833
