 116
scf done:    -3566.915375
 C     1.565613     2.851684    -1.498459
 H     1.279491     3.879093    -1.212892
 H     2.485026     2.644298    -0.922799
 C     1.902117     2.835092    -2.985224
 H     1.050757     3.159043    -3.605064
 H     2.753112     3.497829    -3.234682
 H     2.181677     1.830192    -3.347675
Rh    -0.018899     1.564993    -0.843402
 C     2.621819    -0.315859    -1.287946
 C     2.912297     1.214906     1.266905
 C     1.392735    -1.111770     1.383899
 C    -2.281442     0.067626     1.469040
 C    -3.380227     0.477213    -1.137670
 C    -1.316340    -1.608301    -0.852824
 P    -1.764387     0.106933    -0.322718
 P     1.705381     0.298325     0.224516
 C    -1.035630     2.518268    -2.012521
 O    -1.651025     3.120153    -2.784528
 H     2.169166    -1.288871    -1.510621
 H     2.243951     0.391867    -2.037679
 C     4.114828    -0.367896    -1.389813
 C     4.878670     0.806069    -1.331879
 H     4.378585     1.763677    -1.171157
 C     4.783757    -1.572806    -1.630336
 H     4.204803    -2.494254    -1.699609
 C     6.263415     0.776865    -1.474803
 H     6.860374     1.689247    -1.424408
 C     6.167224    -1.621229    -1.787424
 H     6.691099    -2.559435    -1.980784
 C     6.893286    -0.440799    -1.698869
 F     8.221679    -0.477041    -1.839527
 C     4.100757     0.597673     1.704356
 O     4.239058    -0.699609     1.391228
 C     5.425167    -1.371051     1.705024
 H     5.316243    -2.388485     1.310068
 H     6.297942    -0.898106     1.225157
 H     5.586049    -1.422199     2.795860
 C     2.644949     2.527988     1.706068
 O     1.431139     3.022265     1.432713
 C     1.178500     4.390247     1.566929
 H     0.188701     4.558644     1.123241
 H     1.920879     4.996579     1.021418
 H     1.162764     4.704813     2.626239
 C     3.606683     3.250398     2.426446
 H     3.411710     4.276133     2.737119
 C     5.061052     1.311096     2.432922
 H     5.993638     0.839826     2.739569
 C     4.806547     2.636267     2.766077
 H     5.556013     3.199972     3.327190
 C     1.719562    -2.469525     1.222122
 O     2.269134    -2.848105     0.051107
 C     2.655933    -4.179469    -0.126593
 H     3.031289    -4.262977    -1.154619
 H     3.458895    -4.468428     0.574554
 H     1.806334    -4.871817    -0.012739
 C     0.815317    -0.724175     2.610475
 O     0.530134     0.585171     2.711598
 C     0.055437     1.120698     3.911048
 H    -0.047458     2.199416     3.739655
 H     0.764200     0.951393     4.739852
 H    -0.929612     0.703721     4.184678
 C     0.573466    -1.636137     3.643246
 H     0.127633    -1.312067     4.582604
 C     1.492732    -3.389466     2.256607
 H     1.763847    -4.436679     2.133169
 C     0.927742    -2.964978     3.453102
 H     0.758150    -3.688863     4.253919
 H    -1.669558    -0.706253     1.946735
 H    -1.947028     1.043585     1.840319
 C    -3.737787    -0.118146     1.768669
 C    -4.403617     0.817428     2.568677
 H    -3.845260     1.669579     2.965267
 C    -4.485386    -1.183320     1.246705
 H    -4.000954    -1.904018     0.587186
 C    -5.761148     0.697587     2.860484
 H    -6.281833     1.427070     3.483691
 C    -5.841396    -1.319363     1.526092
 H    -6.429424    -2.140916     1.112610
 C    -6.464738    -0.375802     2.333336
 F    -7.767795    -0.500419     2.600038
 C    -4.125413    -0.370059    -1.978306
 O    -3.705348    -1.643680    -2.097996
 C    -4.264012    -2.483030    -3.063914
 H    -3.678321    -3.411584    -3.037994
 H    -5.321363    -2.718764    -2.847876
 H    -4.196719    -2.044085    -4.074623
 C    -3.893624     1.765099    -0.892765
 O    -3.199880     2.495729     0.001949
 C    -3.461774     3.863133     0.138903
 H    -2.691945     4.258327     0.814347
 H    -4.456893     4.045569     0.581040
 H    -3.387867     4.383718    -0.830309
 C    -5.046784     2.234663    -1.526994
 H    -5.418597     3.240525    -1.337486
 C    -5.277902     0.093144    -2.626393
 H    -5.841085    -0.563604    -3.288127
 C    -5.720354     1.390830    -2.400736
 H    -6.622085     1.746084    -2.904945
 C    -0.862896    -1.705316    -2.186717
 O    -1.021273    -0.597537    -2.923210
 C    -0.311167    -0.424473    -4.117348
 H    -0.452185     0.623490    -4.408803
 H     0.765832    -0.613034    -3.975379
 H    -0.694622    -1.080263    -4.918853
 C    -1.316831    -2.785306    -0.084884
 O    -1.803366    -2.711815     1.171256
 C    -2.058841    -3.881286     1.895547
 H    -2.529119    -3.563053     2.834691
 H    -1.131723    -4.427825     2.131596
 H    -2.751171    -4.548438     1.352764
 C    -0.841255    -3.994075    -0.615411
 H    -0.850963    -4.899100    -0.009498
 C    -0.345781    -2.894303    -2.710276
 H     0.012465    -2.937912    -3.738444
 C    -0.347707    -4.033380    -1.913247
 H     0.031874    -4.975562    -2.316858
