 112
scf done:    -2619.743491
 C     1.315482     0.678518    -3.323047
 H     1.064660     1.452569    -4.059077
 H     2.406096     0.581933    -3.281454
 C     0.598754    -0.630175    -3.568866
 H    -0.108818    -0.597810    -4.410037
 H     1.278513    -1.485932    -3.705917
 H    -0.033025    -0.926506    -2.671255
Rh     0.266741     0.847067    -1.535625
 C     2.499821    -1.552708     0.304852
 C     3.734163     0.615513    -1.138555
 C     2.426582     1.079489     1.338213
 C    -2.403190     2.021533     0.519904
 C    -2.995458    -0.161636    -1.344144
 C    -1.774084    -0.651985     1.234767
 P    -1.657274     0.495245    -0.212976
 P     2.128588     0.172659    -0.266512
 C    -0.082334     2.602023    -1.925269
 O    -0.104548     3.752029    -2.074060
 H     3.393641    -1.534353     0.951519
 H     1.652277    -1.852604     0.942560
 C     2.671147    -2.564069    -0.817203
 H     1.772418    -2.562338    -1.457483
 H     3.499282    -2.263087    -1.482838
 C     2.935536    -3.973305    -0.305928
 H     2.125808    -4.263530     0.386507
 H     3.860704    -3.973539     0.299079
 C     3.054373    -5.011424    -1.412322
 H     2.139143    -4.987294    -2.031339
 H     3.876017    -4.726190    -2.093146
 C     3.280631    -6.421904    -0.893306
 H     3.363445    -7.150498    -1.713906
 H     2.450778    -6.743368    -0.243390
 H     4.205674    -6.484601    -0.297863
 H     3.854085    -0.146109    -1.924054
 H     3.515813     1.556478    -1.659111
 C     4.972862     0.712115    -0.304116
 C     5.657886    -0.450995     0.073448
 H     5.306831    -1.416559    -0.298522
 C     5.468849     1.963444     0.125611
 C     4.846903     3.256949    -0.321641
 H     3.775831     3.326236    -0.078924
 H     4.925940     3.380869    -1.414129
 H     5.349788     4.114368     0.145992
 C     6.781204    -0.404614     0.894492
 H     7.292923    -1.328924     1.172855
 C     6.597000     1.991885     0.952522
 H     6.978189     2.960592     1.287501
 C     7.247708     0.825768     1.348079
 H     8.125358     0.881694     1.996220
 H     3.371040     0.683576     1.743008
 H     2.619498     2.119070     1.050052
 C     1.354661     1.017963     2.381269
 C     1.239956    -0.109839     3.204799
 H     1.935488    -0.940647     3.065952
 C     0.488099     2.110951     2.592988
 C     0.625126     3.372767     1.789871
 H     0.562756     3.176095     0.708197
 H     1.597567     3.858127     1.976568
 H    -0.156848     4.098004     2.053944
 C     0.270045    -0.189004     4.200898
 H     0.199733    -1.083161     4.824431
 C    -0.483766     2.014681     3.595886
 H    -1.157884     2.860397     3.757947
 C    -0.604209     0.878238     4.392485
 H    -1.372760     0.832397     5.167598
 H    -3.123707     1.745343     1.306290
 H    -1.566495     2.509786     1.033850
 C    -3.020127     2.983141    -0.489575
 H    -2.469228     2.937456    -1.441954
 H    -4.050387     2.670221    -0.731342
 C    -3.029796     4.426163    -0.005859
 H    -1.990312     4.736631     0.201481
 H    -3.567584     4.492956     0.958155
 C    -3.645851     5.392923    -1.006300
 H    -3.091628     5.315083    -1.957831
 H    -4.679740     5.075406    -1.231323
 C    -3.644347     6.835932    -0.528985
 H    -4.090043     7.511753    -1.274532
 H    -2.618901     7.188204    -0.332685
 H    -4.215842     6.949524     0.406630
 H    -3.247003     0.690540    -1.996450
 H    -2.491570    -0.888594    -1.992908
 C    -4.230234    -0.761898    -0.725185
 C    -5.066018     0.013047     0.091317
 H    -4.821804     1.062064     0.258713
 C    -4.589430    -2.106106    -0.971613
 C    -3.792088    -2.986597    -1.888253
 H    -2.761672    -3.120626    -1.529249
 H    -3.736876    -2.565648    -2.905120
 H    -4.248485    -3.982579    -1.964216
 C    -6.211122    -0.511580     0.684563
 H    -6.838549     0.123886     1.313922
 C    -5.739752    -2.620716    -0.361698
 H    -6.008102    -3.663546    -0.551155
 C    -6.546791    -1.844189     0.464566
 H    -7.438313    -2.276707     0.924766
 H    -0.980824    -0.337139     1.930927
 H    -2.729535    -0.437899     1.730943
 C    -1.664450    -2.122448     0.938520
 C    -0.754010    -2.597646    -0.010261
 H    -0.137296    -1.872153    -0.546393
 C    -2.478719    -3.050014     1.624372
 C    -3.482996    -2.601458     2.644753
 H    -4.257138    -1.965173     2.186226
 H    -3.010712    -2.017205     3.450474
 H    -3.989032    -3.462726     3.101784
 C    -0.631766    -3.956950    -0.293096
 H     0.077488    -4.295549    -1.051314
 C    -2.345029    -4.410784     1.329672
 H    -2.979405    -5.126503     1.859818
 C    -1.432756    -4.871702     0.382672
 H    -1.354728    -5.940778     0.171132
