 108
scf done:    -2665.833212
 C    -1.397734    -3.142639    -0.662813
 H    -1.316736    -4.090345    -0.107727
 H    -2.460313    -2.856627    -0.599367
 C    -1.013259    -3.357683    -2.120137
 H     0.013275    -3.744589    -2.221524
 H    -1.682295    -4.077847    -2.629981
 H    -1.059519    -2.423142    -2.709185
Rh    -0.025821    -1.651996    -0.047292
 C    -2.691750     0.085253    -1.483977
 C    -3.247481    -1.088453     1.149680
 C    -1.874762     1.449313     0.974876
 C     2.235058     0.794551     1.281702
 C     3.372127    -1.118696    -0.664415
 C     1.470903     1.005475    -1.626311
 P     1.791597    -0.211582    -0.248876
 P    -1.880934    -0.238196     0.175986
 C     0.952776    -2.972695     0.773842
 O     1.483166    -3.726577     1.471703
 H    -2.023141     0.788134    -2.005649
 H    -2.600790    -0.874655    -2.013666
 C    -4.110537     0.556786    -1.496864
 C    -5.159650    -0.365624    -1.610972
 H    -4.928172    -1.424450    -1.753826
 C    -4.439880     1.910714    -1.344802
 H    -3.644618     2.656654    -1.278133
 C    -6.490600     0.034653    -1.536670
 H    -7.309924    -0.681716    -1.619143
 C    -5.765393     2.330116    -1.269923
 H    -6.027108     3.382754    -1.148327
 C    -6.777558     1.381951    -1.355963
 F    -8.048169     1.775294    -1.279316
 H    -3.707805    -1.732803     0.379564
 C    -4.369632    -0.212316     1.716049
 H    -4.773619     0.470934     0.956788
 H    -3.975712     0.417284     2.532192
 C    -5.494442    -1.083093     2.271606
 H    -6.291499    -0.443416     2.684601
 H    -5.951998    -1.647279     1.438721
 C    -4.986663    -2.056454     3.328868
 H    -5.805950    -2.704135     3.681445
 H    -4.643874    -1.483168     4.209694
 C    -3.828498    -2.895012     2.800088
 H    -4.195484    -3.564328     2.000733
 H    -3.432268    -3.550077     3.592878
 C    -2.710796    -2.024585     2.236495
 H    -2.264876    -1.429039     3.052447
 H    -1.895242    -2.637853     1.827666
 H    -2.937812     1.745514     1.013261
 C    -1.129304     2.545839     0.218204
 H    -1.473118     2.620340    -0.825568
 H    -0.060444     2.291552     0.172014
 C    -1.271778     3.894755     0.916115
 H    -0.728531     4.670022     0.351113
 H    -2.335268     4.195489     0.916602
 C    -0.763556     3.823163     2.351236
 H    -0.901443     4.791084     2.859405
 H     0.325690     3.634021     2.339066
 C    -1.456673     2.709296     3.126535
 H    -2.524210     2.966155     3.251896
 H    -1.036730     2.628252     4.142111
 C    -1.353241     1.365032     2.412254
 H    -0.305321     1.024284     2.390215
 H    -1.902665     0.600994     2.979689
 H     1.640553     1.717150     1.217764
 H     1.785538     0.198130     2.088686
 C     3.661473     1.098674     1.623155
 C     4.454709     0.128120     2.251506
 H     4.012414    -0.833874     2.523937
 C     4.247626     2.338093     1.336803
 H     3.648325     3.125038     0.874034
 C     5.796582     0.360395     2.537742
 H     6.417968    -0.395785     3.020836
 C     5.587073     2.591149     1.619869
 H     6.047688     3.554705     1.394794
 C     6.351299     1.590543     2.206924
 F     7.635725     1.821401     2.473791
 H     3.647606    -1.531050     0.325376
 C     4.556317    -0.286595    -1.166709
 H     4.720191     0.603631    -0.546519
 H     4.333692     0.072866    -2.186351
 C     5.828109    -1.130458    -1.205886
 H     6.670101    -0.522050    -1.574410
 H     6.088322    -1.424019    -0.173057
 C     5.652399    -2.377223    -2.064224
 H     6.561007    -3.000237    -2.030610
 H     5.524549    -2.072409    -3.119068
 C     4.433225    -3.183557    -1.630180
 H     4.608130    -3.605441    -0.623966
 H     4.280426    -4.042930    -2.303020
 C     3.173673    -2.324270    -1.592007
 H     2.944219    -1.973898    -2.611720
 H     2.306484    -2.917565    -1.269785
 H     0.439639     1.313720    -1.394223
 C     1.383595     0.290626    -2.977163
 H     0.756883    -0.612651    -2.881892
 H     2.385320    -0.051079    -3.285832
 C     0.827980     1.223444    -4.047790
 H     0.795105     0.705965    -5.020020
 H    -0.218046     1.480138    -3.798118
 C     1.652046     2.501867    -4.148936
 H     1.223143     3.179523    -4.904668
 H     2.668554     2.248309    -4.500856
 C     1.751795     3.206246    -2.800610
 H     0.746427     3.553337    -2.498622
 H     2.379095     4.108787    -2.881805
 C     2.302099     2.282918    -1.714969
 H     3.355933     2.044266    -1.927602
 H     2.290842     2.810552    -0.749071
