  60
scf done:    -2185.744147
 C     0.763169    -4.046568     0.157568
 H     0.250625    -4.976458    -0.131723
 H     1.647500    -3.952911    -0.489103
 C     1.172161    -4.108950     1.622106
 H     1.752828    -5.023573     1.847987
 H     1.807968    -3.254381     1.905762
 H     0.301638    -4.117966     2.300712
Rh    -0.482895    -2.342925     0.014394
 C     1.650547     0.426442     0.908086
 O     2.814591    -1.825331    -0.151830
 O     1.412396    -0.238031    -1.622822
 C    -1.766084     0.806930    -1.131063
 O    -3.464733    -0.746271     0.077488
 O    -1.612425     0.418515     1.477353
 P    -1.834973    -0.517006     0.133126
 P     1.385412    -1.038177    -0.178556
 C    -1.748490    -3.489954    -0.723852
 O    -2.470696    -4.159667    -1.315301
 H     0.696195     0.976882     0.881566
 H     1.725117    -0.004139     1.919205
 C     2.819288     1.318060     0.621757
 C     3.958660     1.283798     1.433970
 H     3.984909     0.609264     2.294086
 C     2.807489     2.199291    -0.468116
 H     1.932011     2.234384    -1.118959
 C     5.063953     2.087803     1.166999
 H     5.954706     2.066329     1.797377
 C     3.902806     3.010040    -0.749076
 H     3.902661     3.698117    -1.596382
 C     5.022194     2.941500     0.072286
 F     6.073668     3.714643    -0.193006
 C     4.026005    -1.362605    -0.717671
 H     3.864971    -0.498816    -1.379571
 H     4.728817    -1.071345     0.076128
 H     4.463920    -2.187803    -1.299263
 C     1.069834    -0.937496    -2.806641
 H     1.893751    -1.595541    -3.127692
 H     0.166575    -1.551172    -2.647912
 H     0.884973    -0.187721    -3.587748
 H    -0.697297     0.955553    -1.344550
 H    -2.211331     0.353982    -2.031081
 C    -2.434991     2.092620    -0.753514
 C    -3.825231     2.236923    -0.833510
 H    -4.429342     1.398699    -1.185803
 C    -1.679390     3.168442    -0.274955
 H    -0.592640     3.073602    -0.200342
 C    -4.445849     3.423175    -0.454048
 H    -5.528504     3.547870    -0.515270
 C    -2.284103     4.362165     0.108812
 H    -1.701505     5.207224     0.479751
 C    -3.665129     4.473159     0.013907
 F    -4.254509     5.612735     0.377067
 C    -4.085685    -1.656536     0.955541
 H    -3.432606    -2.520525     1.171811
 H    -4.354209    -1.161640     1.903609
 H    -5.003720    -2.022204     0.474983
 C    -1.282489    -0.187338     2.707074
 H    -2.189945    -0.399721     3.295623
 H    -0.729344    -1.133609     2.554839
 H    -0.652539     0.511422     3.276076
