  88
scf done:    -2005.705692
 C     1.059040    -2.373489     2.315193
 H     0.840633    -3.451697     2.255178
 H     2.159022    -2.321419     2.266585
 C     0.541775    -1.839389     3.644218
 H    -0.542082    -2.009175     3.744643
 H     1.026404    -2.324429     4.513610
 H     0.698711    -0.753893     3.757254
Rh     0.098444    -1.250760     0.775262
 C     2.977755     0.231805     2.405432
 C     3.327058    -0.995505    -0.159771
 C     2.406396     1.794010     0.167959
 C    -0.884659    -0.023546    -2.451008
 C    -2.972474    -1.080086    -0.826656
 C    -1.766238     1.622835    -0.211663
 P    -1.363936    -0.136929    -0.677364
 P     2.107480     0.052132     0.787527
 C    -0.791335    -2.825824     0.564307
 O    -1.250575    -3.871320     0.389415
 H     2.339045     0.773492     3.115094
 H     3.188266    -0.755534     2.833173
 H     3.922088     0.782856     2.285774
 H     3.457125    -1.847128     0.534662
 C     4.701926    -0.377393    -0.410405
 H     5.137636     0.010243     0.524585
 H     4.601160     0.485610    -1.092186
 C     5.650449    -1.394660    -1.042008
 H     6.627726    -0.925562    -1.242153
 H     5.837936    -2.208183    -0.318229
 C     5.068564    -1.985361    -2.321570
 H     5.752603    -2.741592    -2.739879
 H     4.986147    -1.187298    -3.082297
 C     3.688747    -2.586700    -2.076985
 H     3.783421    -3.456129    -1.401631
 H     3.263148    -2.971572    -3.017963
 C     2.737613    -1.574813    -1.448281
 H     2.543278    -0.763115    -2.171148
 H     1.758518    -2.027936    -1.217005
 H     3.496550     1.952379     0.262484
 C     1.703898     2.814697     1.066386
 H     2.051354     2.717569     2.105655
 H     0.626195     2.588154     1.083135
 C     1.916813     4.249443     0.593081
 H     1.348797     4.941655     1.236370
 H     2.981914     4.516876     0.715855
 C     1.523119     4.430796    -0.867037
 H     1.721403     5.463901    -1.194968
 H     0.433597     4.276172    -0.972648
 C     2.258574     3.435548    -1.754924
 H     3.341513     3.654439    -1.728460
 H     1.945556     3.547309    -2.805772
 C     2.024181     2.000758    -1.294006
 H     0.958623     1.754674    -1.415448
 H     2.578200     1.302401    -1.939150
 H    -0.868678    -1.046431    -2.855518
 H    -1.573842     0.587305    -3.052077
 H     0.130647     0.380448    -2.538423
 H    -2.584180    -2.096893    -1.022133
 C    -3.927834    -0.766146    -1.980956
 H    -3.391246    -0.740650    -2.941420
 H    -4.380898     0.228673    -1.847731
 C    -5.039045    -1.813557    -2.045544
 H    -5.734198    -1.573687    -2.866817
 H    -4.593525    -2.794357    -2.291475
 C    -5.792641    -1.923098    -0.724589
 H    -6.561139    -2.710695    -0.786188
 H    -6.333062    -0.976715    -0.538258
 C    -4.843074    -2.192068     0.437630
 H    -4.385555    -3.190446     0.320075
 H    -5.396318    -2.212945     1.390578
 C    -3.732645    -1.148997     0.498827
 H    -4.178326    -0.161673     0.714333
 H    -3.034234    -1.369160     1.322844
 H    -0.834173     2.149677    -0.490190
 C    -1.925976     1.772202     1.305279
 H    -1.076376     1.288212     1.816826
 H    -2.823536     1.224421     1.635514
 C    -2.056991     3.236807     1.713644
 H    -2.217616     3.310366     2.801402
 H    -1.106805     3.760982     1.506162
 C    -3.181043     3.936843     0.958337
 H    -3.226059     5.002380     1.236111
 H    -4.149766     3.496765     1.257502
 C    -3.011894     3.784135    -0.548765
 H    -2.094184     4.310353    -0.869784
 H    -3.847745     4.265208    -1.082336
 C    -2.913664     2.313515    -0.946710
 H    -3.862827     1.816138    -0.686941
 H    -2.797764     2.219790    -2.038234
