 108
scf done:    -2965.638053
 C     0.975403    -0.096967    -3.707023
 H     0.920486     0.661278    -4.505507
 H     2.017145    -0.041741    -3.348712
 C     0.725185    -1.480253    -4.295129
 H    -0.274601    -1.556754    -4.750725
 H     1.461245    -1.746413    -5.077653
 H     0.777859    -2.275624    -3.531311
Rh    -0.456986     0.290408    -2.178814
 C     2.407462    -1.322087    -0.907515
 C     2.497709     1.670386    -1.302443
 C     1.157053     0.492407     1.078650
 C    -2.674945     2.194512    -0.272712
 C    -3.787684    -0.277318    -1.500697
 C    -2.265562    -0.359943     0.970522
 P    -2.238427     0.431303    -0.701805
 P     1.407458     0.250347    -0.757055
 C    -1.524754     0.880286    -3.559754
 O    -2.119659     1.372169    -4.415595
 H     2.048510    -1.963125    -0.089272
 H     2.056091    -1.772527    -1.845564
 C     3.904267    -1.241448    -0.908985
 C     4.597308    -0.973537    -2.097669
 H     4.038797    -0.849140    -3.029783
 C     4.650275    -1.442174     0.259272
 H     4.140426    -1.684920     1.191502
 C     5.986321    -0.862008    -2.119593
 H     6.529594    -0.643403    -3.040520
 C     6.037517    -1.336029     0.255487
 H     6.620026    -1.483126     1.166815
 C     6.687914    -1.031860    -0.933138
 F     8.015971    -0.890273    -0.931526
 H     3.105245     1.276107    -2.128472
 H     1.778747     2.368693    -1.755208
 C     3.357374     2.383258    -0.304068
 C     2.829859     3.430723     0.460963
 H     1.787921     3.732536     0.320601
 C     4.706937     2.049968    -0.137012
 H     5.133004     1.247395    -0.740365
 C     3.628525     4.100591     1.386591
 H     3.205478     4.913346     1.982049
 C     5.526773     2.719665     0.774480
 C     6.980311     2.367968     0.907295
 H     7.228694     1.452200     0.354760
 H     7.617088     3.177854     0.515697
 H     7.261425     2.219553     1.961177
 C     4.965122     3.745279     1.547115
 H     5.587374     4.279591     2.270689
 H     1.107404     1.581101     1.230186
 H     0.152515     0.092153     1.246509
 C     2.095150    -0.151732     2.054545
 C     1.851854    -1.465550     2.478224
 H     0.974152    -2.002680     2.110744
 C     3.202383     0.526668     2.573547
 H     3.390892     1.556296     2.266779
 C     2.715224    -2.083800     3.379899
 H     2.512631    -3.107078     3.705488
 C     4.082082    -0.083127     3.473095
 C     5.294031     0.650601     3.968177
 H     5.155817     1.739076     3.905239
 H     5.533306     0.385743     5.008609
 H     6.175384     0.399778     3.354244
 C     3.826924    -1.401630     3.870024
 H     4.501193    -1.893600     4.576711
 H    -1.857870     2.523246     0.390111
 H    -2.541548     2.743830    -1.216242
 C    -4.018635     2.475546     0.320619
 C    -5.067367     2.930100    -0.490029
 H    -4.882987     3.117480    -1.551219
 C    -4.278871     2.274907     1.683316
 H    -3.473989     1.948157     2.345319
 C    -6.343340     3.146869     0.025549
 H    -7.165208     3.493026    -0.603481
 C    -5.547114     2.482191     2.215712
 H    -5.758733     2.317327     3.273574
 C    -6.567874     2.906988     1.374272
 F    -7.793107     3.076991     1.873168
 H    -4.328871     0.577911    -1.934827
 H    -3.410505    -0.874301    -2.342557
 C    -4.682166    -1.114608    -0.635263
 C    -4.434934    -2.485321    -0.502320
 H    -3.614899    -2.944358    -1.059086
 C    -5.746072    -0.555575     0.084604
 H    -5.958073     0.509698    -0.019665
 C    -5.216198    -3.263631     0.348291
 H    -5.003918    -4.330433     0.451883
 C    -6.546127    -1.323511     0.935610
 C    -7.695258    -0.709164     1.682591
 H    -7.713350     0.383690     1.579455
 H    -8.658647    -1.095802     1.312259
 H    -7.646271    -0.947369     2.756706
 C    -6.259596    -2.688464     1.066798
 H    -6.867880    -3.306013     1.733817
 H    -1.728351     0.325795     1.647259
 H    -3.310027    -0.376208     1.321767
 C    -1.678480    -1.745475     1.086479
 C    -1.784452    -2.414807     2.311219
 H    -2.300030    -1.933044     3.146104
 C    -1.025634    -2.390581     0.030644
 H    -0.937864    -1.879910    -0.938819
 C    -1.243209    -3.687273     2.469546
 H    -1.333025    -4.199007     3.430850
 C    -0.472955    -3.668984     0.171540
 C     0.231365    -4.331943    -0.976666
 H     1.312419    -4.422548    -0.781889
 H    -0.151832    -5.349649    -1.147069
 H     0.107185    -3.759914    -1.906495
 C    -0.588020    -4.310821     1.409566
 H    -0.165659    -5.310847     1.541705
