  84
scf done:    -3048.120432
 C    -1.359741    -3.058132    -1.395627
 H    -1.446205    -4.115763    -1.099143
 H    -2.388438    -2.660087    -1.337796
 C    -0.843005    -2.958796    -2.824290
 H     0.146660    -3.429097    -2.934633
 H    -1.522406    -3.451931    -3.545112
 H    -0.734441    -1.912125    -3.159557
Rh     0.041489    -1.949366    -0.260665
 C    -2.334263     0.239458    -1.456865
 C    -3.146668    -1.288929     0.986146
 C    -1.500742     0.913565     1.301754
 C     2.401223     0.221470     1.693952
 C     3.390261    -0.945801    -0.712832
 C     1.321440     0.994523    -0.945545
 P     1.793042    -0.467294     0.057044
 P    -1.721074    -0.493131     0.144881
 C     0.884594    -3.563599     0.040122
 O     1.275383    -4.596028     0.374884
 H    -1.555541     0.969829    -1.725063
 H    -2.212514    -0.599071    -2.159012
 C    -3.702540     0.830547    -1.609733
 C    -4.844805     0.019034    -1.569901
 H    -4.735887    -1.055899    -1.409371
 C    -3.873830     2.198481    -1.858610
 H    -2.994801     2.842837    -1.955665
 C    -6.117949     0.556224    -1.730488
 H    -7.010629    -0.070758    -1.696122
 C    -5.140828     2.754155    -2.020412
 H    -5.278896     3.818674    -2.217500
 C    -6.251086     1.923249    -1.943369
 F    -7.467275     2.444791    -2.092292
 C    -4.248377    -0.529609     1.408180
 H    -4.283845     0.544141     1.213885
 C    -3.106074    -2.652882     1.295551
 H    -2.228037    -3.232774     1.000727
 C    -5.305348    -1.124440     2.087288
 H    -6.171441    -0.547824     2.416571
 C    -4.154900    -3.260158     1.981314
 H    -4.135750    -4.322403     2.231013
 C    -5.245349    -2.487460     2.359884
 F    -6.252594    -3.059965     3.012604
 C    -0.879382     0.618955     2.523252
 H    -0.546050    -0.405077     2.718315
 C    -1.933863     2.221643     1.067711
 H    -2.438079     2.476187     0.136705
 C    -0.671940     1.606364     3.480888
 H    -0.187407     1.389384     4.434654
 C    -1.730403     3.223721     2.014870
 H    -2.062544     4.249120     1.842203
 C    -1.095979     2.903593     3.208477
 F    -0.895792     3.855409     4.114689
 H     1.628473     0.913787     2.055396
 H     2.373965    -0.648960     2.366723
 C     3.764260     0.837742     1.674110
 C     4.895656     0.040797     1.897626
 H     4.767429    -1.016665     2.140950
 C     3.962343     2.188658     1.363474
 H     3.103450     2.840204     1.193505
 C     6.181503     0.559102     1.794567
 H     7.063845    -0.061421     1.959812
 C     5.242982     2.726053     1.257310
 H     5.402984     3.778388     1.016016
 C     6.339566     1.900134     1.466480
 F     7.567157     2.405608     1.358283
 C     4.211954     0.004753    -1.336470
 H     3.867380     1.033947    -1.451540
 C     3.870416    -2.250878    -0.561389
 H     3.251112    -3.010176    -0.082957
 C     5.477921    -0.335817    -1.798408
 H     6.126680     0.397023    -2.281071
 C     5.139993    -2.604960    -1.011171
 H     5.523015    -3.620625    -0.898261
 C     5.928163    -1.639665    -1.624380
 F     7.140856    -1.970041    -2.057997
 C     1.193981     0.806575    -2.333496
 H     1.493814    -0.146119    -2.778493
 C     0.917065     2.215593    -0.399267
 H     0.973391     2.389765     0.675782
 C     0.677130     1.805302    -3.150421
 H     0.567396     1.664686    -4.227071
 C     0.394236     3.226197    -1.205851
 H     0.066686     4.177437    -0.782803
 C     0.273888     3.004851    -2.569927
 F    -0.254795     3.955280    -3.338193
