 106
scf done:    -2989.476917
 C     2.240667    -2.863783    -2.506957
 H     2.007620    -3.537485    -3.345644
 H     2.822170    -2.031928    -2.929474
 C     3.056946    -3.619544    -1.467426
 H     3.985310    -4.036702    -1.901270
 H     3.360784    -2.979279    -0.622223
 H     2.498615    -4.467010    -1.037076
Rh     0.501182    -2.059234    -1.582649
 C     2.280613    -0.435419     1.078345
 O     3.309463    -0.259125    -1.470948
 O     1.308200     1.162104    -0.778612
 C    -2.984448    -1.635725    -1.296014
 O    -1.673908    -2.295547     0.924108
 O    -1.361163     0.135754     0.088236
 P    -1.360477    -1.418643    -0.468089
 P     1.842973    -0.391666    -0.714417
 C    -0.382796    -3.247066    -2.704902
 O    -0.909828    -3.937460    -3.455489
 H     1.570048    -1.152476     1.511875
 H     3.274891    -0.904406     1.132570
 C     2.234856     0.865295     1.824362
 C     3.398422     1.556717     2.166146
 H     4.375599     1.149716     1.895265
 C     0.993973     1.411936     2.171051
 H     0.085739     0.876742     1.888686
 C     3.309446     2.773975     2.840098
 H     4.223447     3.309423     3.109624
 C     0.886212     2.636478     2.831568
 C    -0.461755     3.226005     3.133951
 H    -1.245487     2.455517     3.160170
 H    -0.463893     3.761989     4.094897
 H    -0.756795     3.947907     2.354222
 C     2.067772     3.311957     3.167237
 H     2.010564     4.269968     3.692168
 C     4.336651     0.526499    -1.013343
 C     5.451573    -0.093287    -0.454005
 H     5.478929    -1.183611    -0.398425
 C     4.289602     1.916720    -1.125357
 H     3.417542     2.392346    -1.574501
 C     6.508594     0.683173     0.018335
 H     7.378961     0.189528     0.459132
 C     5.351082     2.675434    -0.646674
 H     5.301522     3.764860    -0.726862
 C     6.475410     2.079162    -0.059529
 C     7.605472     2.920534     0.459102
 H     8.394000     2.302461     0.910600
 H     7.254925     3.631663     1.223979
 H     8.064687     3.514580    -0.347169
 C     0.555232     1.796150    -1.720262
 C     0.390883     3.169430    -1.534252
 H     0.869521     3.638813    -0.672323
 C    -0.051981     1.158769    -2.801076
 H     0.081837     0.078331    -2.938678
 C    -0.399243     3.896398    -2.419477
 H    -0.528472     4.970435    -2.258468
 C    -0.846940     1.902934    -3.669764
 H    -1.328884     1.392187    -4.508537
 C    -1.040085     3.279262    -3.501277
 C    -1.873762     4.071553    -4.466506
 H    -2.343311     4.937922    -3.977935
 H    -2.670929     3.456983    -4.909637
 H    -1.260595     4.458572    -5.297756
 H    -2.887018    -1.039609    -2.217733
 H    -2.967627    -2.693390    -1.607467
 C    -4.250394    -1.303248    -0.563075
 C    -4.731869    -2.137667     0.453516
 H    -4.180749    -3.043224     0.714235
 C    -4.964345    -0.146869    -0.883118
 H    -4.589119     0.507316    -1.675668
 C    -5.890679    -1.795137     1.141388
 H    -6.262081    -2.446435     1.936477
 C    -6.127872     0.214983    -0.196629
 C    -6.857330     1.475399    -0.558253
 H    -7.716404     1.649133     0.104965
 H    -6.187691     2.346752    -0.487012
 H    -7.233923     1.436184    -1.592864
 C    -6.580287    -0.625139     0.824976
 H    -7.487352    -0.361337     1.375794
 C    -0.604473    -2.647497     1.716787
 C    -0.434670    -2.027584     2.954308
 H    -1.148768    -1.271443     3.282436
 C     0.311187    -3.607822     1.286526
 H     0.166616    -4.088662     0.316535
 C     0.659610    -2.359845     3.748631
 H     0.790201    -1.855442     4.709619
 C     1.406073    -3.922117     2.089038
 H     2.126389    -4.663902     1.734543
 C     1.606789    -3.301518     3.327233
 C     2.812953    -3.605586     4.167058
 H     3.531604    -2.769809     4.139073
 H     3.334929    -4.505170     3.812116
 H     2.541133    -3.762366     5.221880
 C    -2.350480     0.894511     0.664447
 C    -3.047669     0.472107     1.796407
 H    -2.869374    -0.522015     2.202778
 C    -2.599592     2.147720     0.113770
 H    -2.036882     2.462910    -0.765432
 C    -4.010898     1.305076     2.353478
 H    -4.571033     0.954906     3.224588
 C    -3.558747     2.973891     0.695407
 H    -3.746587     3.958282     0.257237
 C    -4.285694     2.570503     1.819652
 C    -5.348617     3.440840     2.423323
 H    -6.349203     3.002059     2.273918
 H    -5.353809     4.443398     1.972840
 H    -5.206678     3.557838     3.508870
