 104
scf done:    -2513.506846
 C    -0.783199    -1.157887    -3.300341
 H    -0.103943    -1.838208    -3.840698
 H    -1.706087    -1.743723    -3.145490
 C    -1.089722     0.055150    -4.169105
 H    -0.174048     0.611944    -4.424520
 H    -1.578871    -0.220260    -5.123305
 H    -1.762876     0.769560    -3.663395
Rh     0.065004    -0.352602    -1.526152
 C    -2.159579    -2.843356    -0.654823
 C    -2.224559    -0.818410     1.318516
 C    -3.476784    -0.327503    -1.238250
 C     1.084963     0.747412     1.837500
 C     2.660227     1.684615    -0.332327
 C    -0.004579     2.724160    -0.058345
 P     0.934675     1.127972     0.020664
 P    -1.923880    -1.003371    -0.499530
 C     1.707498    -0.759601    -2.250266
 O     2.724041    -1.164283    -2.616036
 H    -3.074959    -3.126584    -0.113755
 H    -2.325006    -3.047920    -1.722512
 C    -0.980471    -3.616501    -0.145882
 C     0.147941    -3.800972    -0.957448
 H     0.153100    -3.384046    -1.965499
 C    -0.960574    -4.139336     1.151536
 H    -1.831381    -4.009131     1.799795
 C     1.260784    -4.493457    -0.492848
 H     2.143963    -4.637021    -1.117679
 C     0.148698    -4.831759     1.635795
 H     0.175539    -5.241026     2.646956
 C     1.242655    -5.001394     0.799719
 F     2.318809    -5.650531     1.256843
 H    -3.052937    -1.485621     1.611520
 H    -1.323301    -1.215744     1.815425
 C    -2.508791     0.603615     1.774889
 H    -1.742473     1.279514     1.366659
 H    -3.464955     0.950310     1.346131
 C    -2.550182     0.767857     3.287414
 H    -1.607273     0.388963     3.722707
 H    -3.348166     0.130030     3.708506
 C    -2.760899     2.210712     3.725318
 H    -1.960421     2.836657     3.290572
 H    -3.702264     2.588427     3.288202
 C    -2.786638     2.389269     5.234255
 H    -2.936212     3.442269     5.516607
 H    -1.842527     2.052557     5.691833
 H    -3.599822     1.803530     5.692065
 H    -3.422046     0.764866    -1.089419
 H    -3.377280    -0.477960    -2.325734
 C    -4.808880    -0.868992    -0.740425
 H    -4.870467    -1.953000    -0.936543
 H    -4.881712    -0.755568     0.355518
 C    -6.003267    -0.180438    -1.388385
 H    -5.934283    -0.288121    -2.485983
 H    -5.947379     0.906001    -1.192275
 C    -7.347047    -0.712168    -0.909942
 H    -7.396793    -1.797766    -1.107152
 H    -7.407596    -0.606258     0.187987
 C    -8.535326    -0.019595    -1.557207
 H    -9.490862    -0.425215    -1.192022
 H    -8.519644    -0.140120    -2.652317
 H    -8.530810     1.062015    -1.346580
 H     1.248490     1.682390     2.393426
 H     0.123782     0.330848     2.167605
 C     2.208458    -0.210354     2.109340
 C     2.165597    -1.535961     1.653253
 H     1.298514    -1.890305     1.087838
 C     3.348671     0.220823     2.797013
 H     3.400390     1.252222     3.156535
 C     3.226807    -2.405948     1.890125
 H     3.204600    -3.443560     1.557523
 C     4.419865    -0.635983     3.037250
 H     5.310339    -0.305995     3.575122
 C     4.341532    -1.943837     2.578647
 F     5.357953    -2.775712     2.806483
 H     3.030867     2.314003     0.494645
 H     3.269745     0.766370    -0.316243
 C     2.809865     2.396026    -1.670380
 H     2.184740     1.890082    -2.428212
 H     2.416508     3.425033    -1.592450
 C     4.249203     2.441402    -2.162951
 H     4.618001     1.406244    -2.275962
 H     4.890084     2.908902    -1.392903
 C     4.414885     3.183195    -3.481537
 H     3.764665     2.713628    -4.240679
 H     4.041566     4.216693    -3.366672
 C     5.849754     3.209479    -3.982547
 H     5.938065     3.749741    -4.937332
 H     6.234537     2.189224    -4.140488
 H     6.517438     3.702986    -3.257805
 H     0.137414     3.066674    -1.097333
 H    -1.075907     2.481364     0.012847
 C     0.361742     3.826350     0.923184
 H     0.177917     3.484978     1.956788
 H     1.442891     4.042876     0.864418
 C    -0.422168     5.110822     0.688507
 H    -1.504072     4.887416     0.730540
 H    -0.232283     5.472918    -0.338136
 C    -0.096079     6.213892     1.685582
 H    -0.288091     5.843427     2.708490
 H     0.986476     6.429123     1.645346
 C    -0.881916     7.493344     1.449196
 H    -0.625447     8.270052     2.185319
 H    -1.966958     7.314161     1.518964
 H    -0.681687     7.905665     0.447210
