  96
scf done:    -2808.491162
 C     0.882186     3.694864     0.682676
 H     0.778333     4.254720     1.625791
 H     1.959608     3.469666     0.603193
 C     0.470966     4.569067    -0.496049
 H    -0.567329     4.924736    -0.398074
 H     1.111173     5.466237    -0.598977
 H     0.530859     4.029780    -1.458577
Rh    -0.364055     1.979217     0.603950
 C     1.487325    -1.071653     0.280416
 C     2.576510     1.283122    -1.221804
 C     2.695137     1.171410     1.782672
 C    -2.007425    -1.097484     1.333830
 C    -3.635605     0.884612    -0.066637
 C    -1.620488    -0.497567    -1.572158
 P    -1.879279     0.312639     0.095610
 P     1.606333     0.799966     0.303134
 C    -1.555180     2.862573     1.709116
 O    -2.224173     3.310558     2.534538
 H     1.525491    -1.373933     1.336795
 H     0.463784    -1.272460    -0.056350
 C     2.445703    -1.885094    -0.535010
 C     2.213018    -2.096129    -1.901900
 H     1.324280    -1.670231    -2.375937
 C     3.577449    -2.477959     0.038712
 H     3.773774    -2.349338     1.103336
 C     3.088124    -2.848500    -2.682516
 H     2.909000    -3.014191    -3.746161
 C     4.462600    -3.231827    -0.725511
 H     5.347295    -3.689839    -0.279801
 C     4.211230    -3.403479    -2.081386
 F     5.056372    -4.123281    -2.817581
 H     2.157387     2.264844    -1.486575
 H     2.259415     0.580228    -2.006654
 C     4.071033     1.372067    -1.151284
 C     4.892128     0.309328    -1.545859
 H     4.440531    -0.607314    -1.926270
 C     4.680051     2.548411    -0.691614
 H     4.055079     3.400563    -0.408030
 C     6.278637     0.408455    -1.457637
 H     6.898188    -0.436224    -1.768441
 C     6.066937     2.649472    -0.600728
 H     6.520028     3.574970    -0.237547
 C     6.872822     1.575039    -0.977388
 H     7.960297     1.651644    -0.906523
 H     1.967750     1.468272     2.551689
 H     3.256907     2.077201     1.517643
 C     3.614033     0.112463     2.308451
 C     4.954204     0.037957     1.908757
 H     5.346252     0.766651     1.198584
 C     3.147354    -0.822325     3.244303
 H     2.113880    -0.756992     3.597664
 C     5.792894    -0.955285     2.408828
 H     6.833985    -0.993264     2.079368
 C     3.983261    -1.820327     3.742582
 H     3.597568    -2.538506     4.470121
 C     5.310747    -1.894125     3.320682
 H     5.969328    -2.673521     3.711084
 H    -1.522688    -1.973655     0.879108
 H    -1.380534    -0.774484     2.176685
 C    -3.384889    -1.446996     1.806800
 C    -3.979629    -0.720255     2.846882
 H    -3.417091     0.080692     3.335377
 C    -4.127134    -2.466457     1.198430
 H    -3.684885    -3.047759     0.386915
 C    -5.278753    -0.991478     3.266327
 H    -5.748659    -0.429026     4.075085
 C    -5.427719    -2.750599     1.607006
 H    -6.010982    -3.544507     1.137078
 C    -5.989728    -2.005538     2.635792
 F    -7.235100    -2.270969     3.029521
 H    -3.867310     1.401236     0.879811
 H    -4.300389     0.009080    -0.109119
 C    -3.897952     1.788650    -1.242382
 C    -5.065302     1.613376    -1.997048
 H    -5.769744     0.825009    -1.715681
 C    -3.018705     2.815773    -1.612725
 H    -2.099899     2.968159    -1.034042
 C    -5.347699     2.433988    -3.088023
 H    -6.266353     2.278745    -3.659084
 C    -3.297615     3.634868    -2.704292
 H    -2.594935     4.427780    -2.972446
 C    -4.462110     3.447854    -3.447940
 H    -4.679407     4.090735    -4.304188
 H    -0.535660    -0.615636    -1.696718
 H    -1.932569     0.278401    -2.288675
 C    -2.333740    -1.788932    -1.814672
 C    -3.656054    -1.806850    -2.278029
 H    -4.151713    -0.861658    -2.510993
 C    -1.702144    -3.014406    -1.558094
 H    -0.659653    -3.028506    -1.226113
 C    -4.334260    -3.010374    -2.454143
 H    -5.365379    -3.001840    -2.815584
 C    -2.378656    -4.220209    -1.735813
 H    -1.866407    -5.163355    -1.531499
 C    -3.701339    -4.222322    -2.177247
 H    -4.233341    -5.166223    -2.316156
