  84
scf done:    -4489.241314
 C    -1.605594    -3.191923    -1.672277
 H    -1.619589    -4.228246    -1.295315
 H    -2.613235    -2.804585    -1.438436
 C    -1.391962    -3.202664    -3.181140
 H    -0.444509    -3.691952    -3.456390
 H    -2.200131    -3.736953    -3.715324
 H    -1.349346    -2.185865    -3.609626
Rh    -0.057180    -2.051849    -0.741680
 C    -2.678236    -0.027953    -1.879805
 C    -3.024170    -1.214931     0.816653
 C    -1.462750     1.142857     0.447597
 C     1.716756    -0.036422     1.625628
 C     3.395212    -1.453118    -0.191323
 C     1.827928     0.693065    -1.283993
 P     1.718492    -0.714572    -0.113403
 P    -1.772123    -0.505163    -0.315479
 C     0.904344    -3.622484    -0.878872
 O     1.440180    -4.638080    -0.921147
 H    -1.994679     0.654744    -2.407103
 H    -2.715998    -0.951249    -2.471721
 C    -4.043342     0.558763    -1.719714
 C    -5.168404    -0.275137    -1.756378
 H    -5.036682    -1.344248    -1.942221
 C    -4.235943     1.924318    -1.472793
 H    -3.376442     2.597070    -1.443452
 C    -6.448162     0.226546    -1.541000
 H    -7.327955    -0.418698    -1.565234
 C    -5.509080     2.441972    -1.248703
 H    -5.668532     3.504091    -1.054462
 C    -6.601392     1.582864    -1.281293
 F    -7.820882     2.072300    -1.066154
 C    -2.808745    -2.503307     1.320352
 H    -1.908089    -3.042443     1.008444
 C    -4.166489    -0.510034     1.226131
 H    -4.346712     0.507282     0.874692
 C    -3.716280    -3.089638     2.197729
 H    -3.547728    -4.094195     2.588495
 C    -5.081838    -1.086725     2.099423
 H    -5.972712    -0.540948     2.413606
 C    -4.852693    -2.377747     2.577016
Cl    -5.990546    -3.097161     3.662912
 C    -0.919523     2.183739    -0.318506
 H    -0.720450     2.045809    -1.382581
 C    -1.666990     1.367811     1.816017
 H    -2.076473     0.574502     2.444325
 C    -0.600402     3.411844     0.251372
 H    -0.167214     4.208688    -0.354817
 C    -1.352399     2.591360     2.401443
 H    -1.509427     2.755700     3.468601
 C    -0.817682     3.609004     1.613637
Cl    -0.365885     5.112053     2.343347
 H     0.718470     0.402135     1.760145
 H     1.731499    -0.957116     2.232065
 C     2.778072     0.925979     2.069222
 C     4.112990     0.537330     2.251786
 H     4.405464    -0.501930     2.093094
 C     2.443630     2.264831     2.312772
 H     1.409629     2.587529     2.187997
 C     5.084475     1.459573     2.631732
 H     6.125567     1.163115     2.771535
 C     3.401247     3.199801     2.694764
 H     3.133071     4.241350     2.880480
 C     4.718353     2.783706     2.842819
 F     5.647062     3.667530     3.203448
 C     3.636028    -2.609179     0.564216
 H     2.824979    -3.066253     1.137918
 C     4.443776    -0.907648    -0.936896
 H     4.279934    -0.012352    -1.539462
 C     4.896979    -3.191844     0.601141
 H     5.082757    -4.089909     1.192139
 C     5.710435    -1.487793    -0.917990
 H     6.528813    -1.060181    -1.499336
 C     5.932829    -2.622604    -0.141901
Cl     7.505833    -3.341299    -0.103899
 C     2.466829     1.915087    -1.040801
 H     3.001578     2.084609    -0.106725
 C     1.184820     0.504949    -2.516987
 H     0.698107    -0.459434    -2.711444
 C     2.416684     2.943304    -1.978956
 H     2.899961     3.901374    -1.780121
 C     1.137620     1.519079    -3.468518
 H     0.632775     1.370644    -4.424569
 C     1.742010     2.744359    -3.183185
Cl     1.659430     4.028607    -4.338556
