  96
scf done:    -2657.163658
 C     0.350659     1.975430    -2.404096
 H    -0.487955     2.221487    -3.075272
 H     0.522968     2.865171    -1.778586
 C     1.600227     1.655053    -3.209306
 H     1.428200     0.842351    -3.933354
 H     1.956220     2.531953    -3.782312
 H     2.436639     1.346153    -2.562332
Rh     0.043304     0.241956    -1.221312
 C     1.453479     1.975867     1.558208
 O    -0.707107     3.018968     0.494636
 O    -1.004413     0.830145     1.815146
 C    -1.311911    -2.341946     0.819511
 O     0.601338    -3.058254    -0.816567
 O     1.286949    -1.596102     1.192744
 P     0.170210    -1.673187    -0.027363
 P    -0.062875     1.508501     0.628959
 C    -0.908827    -0.432156    -2.688109
 O    -1.671823    -0.745904    -3.488827
 H     1.252700     2.875828     2.157327
 H     1.638839     1.130780     2.237427
 C     2.611128     2.164929     0.624630
 C     3.366552     1.060771     0.207697
 H     3.109056     0.066593     0.583129
 C     2.921113     3.424312     0.101233
 H     2.323281     4.290161     0.396652
 C     4.427275     1.212894    -0.681440
 H     5.024391     0.361592    -1.012191
 C     3.975274     3.591117    -0.793222
 H     4.226696     4.569233    -1.206816
 C     4.719808     2.480244    -1.168825
 F     5.732846     2.632030    -2.021546
 C    -1.838041     3.226976    -0.345828
 H    -1.753923     4.257370    -0.725275
 H    -1.780990     2.540554    -1.207771
 C    -3.146976     3.023458     0.388691
 H    -3.167247     1.995819     0.785720
 H    -3.192123     3.698509     1.261266
 C    -4.357754     3.238860    -0.507291
 H    -4.272446     2.580611    -1.389977
 H    -4.347360     4.270007    -0.902048
 C    -5.675788     2.974016     0.202441
 H    -5.727100     1.937340     0.573994
 H    -5.803153     3.638657     1.071923
 H    -6.536213     3.130116    -0.465335
 C    -1.186805     1.489979     3.062871
 H    -0.360083     1.205902     3.739885
 H    -1.145348     2.581785     2.914589
 C    -2.516238     1.110370     3.677613
 H    -2.620806     1.690912     4.611404
 H    -3.328938     1.451900     3.014193
 C    -2.685861    -0.371201     3.977501
 H    -1.844631    -0.714643     4.606214
 H    -2.614177    -0.937984     3.036420
 C    -4.007517    -0.691855     4.655458
 H    -4.105348    -0.164149     5.617908
 H    -4.859056    -0.388825     4.025414
 H    -4.110202    -1.769238     4.853505
 H    -1.121892    -3.387488     1.103031
 H    -1.422524    -1.731628     1.726192
 C    -2.506870    -2.206952    -0.074950
 C    -3.249500    -1.019178    -0.078143
 H    -2.969247    -0.220662     0.611612
 C    -2.839011    -3.208167    -0.992760
 H    -2.250541    -4.128533    -1.019581
 C    -4.310755    -0.839498    -0.958956
 H    -4.895107     0.082160    -0.973550
 C    -3.896586    -3.041769    -1.883514
 H    -4.164016    -3.813658    -2.607065
 C    -4.618694    -1.855888    -1.854783
 F    -5.630670    -1.688136    -2.705775
 C     1.354324    -2.999501    -2.023782
 H     1.373320    -4.033086    -2.403481
 H     0.817592    -2.377315    -2.758587
 C     2.759952    -2.468639    -1.826449
 H     3.223033    -2.353222    -2.821948
 H     2.690858    -1.445411    -1.414068
 C     3.633646    -3.344170    -0.940605
 H     3.788265    -4.318151    -1.437348
 H     3.087005    -3.568188    -0.011087
 C     4.976146    -2.717447    -0.604053
 H     5.544863    -2.467667    -1.514393
 H     4.846409    -1.785325    -0.031077
 H     5.599885    -3.391788     0.002160
 C     1.470705    -2.660643     2.115187
 H     0.655780    -2.638695     2.861979
 H     1.418759    -3.627223     1.585309
 C     2.809302    -2.511260     2.803445
 H     2.948039    -3.387227     3.461269
 H     3.607882    -2.566575     2.044188
 C     2.958702    -1.230947     3.611837
 H     2.152299    -1.180690     4.365567
 H     2.803438    -0.369517     2.943476
 C     4.313425    -1.107899     4.288562
 H     4.494151    -1.943491     4.983861
 H     5.128128    -1.114390     3.546819
 H     4.396365    -0.172741     4.862329
