 100
scf done:    -3109.283672
 C     1.208928    -3.646060     0.989707
 H     1.334154    -4.569523     0.412923
 H     2.199560    -3.305443     1.318235
 C     0.188106    -3.742443     2.105736
 H    -0.342999    -4.704723     2.131892
 H     0.607865    -3.538578     3.103226
 H    -0.640268    -2.974905     1.991148
Rh     0.003106    -2.193060     0.096754
 C     1.760578     0.199979     2.114111
 O     3.131726    -1.066658     0.274958
 O     1.339579     0.615856    -0.602052
 C    -1.680301     0.147510    -1.973862
 O    -3.156425    -1.275639    -0.281786
 O    -1.617406     0.539034     0.789362
 P    -1.598595    -0.679583    -0.340171
 P     1.538688    -0.632317     0.485318
 C    -0.345764    -3.301361    -1.380522
 O    -0.438291    -3.856262    -2.384972
 H     0.760849     0.610046     2.328427
 H     1.902236    -0.651458     2.801663
 C     2.831493     1.235872     2.281310
 C     4.184864     0.882384     2.347125
 H     4.466066    -0.171184     2.306828
 C     2.496927     2.593527     2.338346
 H     1.446141     2.889882     2.304353
 C     5.177898     1.854933     2.421542
 H     6.236140     1.590012     2.457182
 C     3.475705     3.578383     2.408425
 H     3.219436     4.638698     2.429062
 C     4.809122     3.193821     2.433652
 F     5.756275     4.135249     2.463009
 C     3.553870    -1.901313    -0.727852
 C     4.587297    -2.787966    -0.433768
 H     5.000741    -2.802607     0.576563
 C     3.001655    -1.870898    -2.008137
 H     2.192340    -1.176559    -2.236846
 C     5.062588    -3.645576    -1.420706
 H     5.869888    -4.342006    -1.177672
 C     3.483611    -2.743293    -2.980383
 H     3.033876    -2.722471    -3.976711
 C     4.519247    -3.644183    -2.711131
 C     5.048457    -4.558255    -3.778229
 H     5.844163    -4.067949    -4.364208
 H     4.257939    -4.851986    -4.484147
 H     5.477764    -5.474497    -3.347477
 C     2.055963     1.780941    -0.731728
 C     3.446442     1.796708    -0.851816
 H     4.007070     0.863614    -0.828177
 C     1.339791     2.973311    -0.790187
 H     0.252457     2.938601    -0.712818
 C     4.104566     3.015623    -0.957533
 H     5.196472     3.020333    -1.016154
 C     2.016397     4.185845    -0.908722
 H     1.442912     5.116708    -0.934047
 C     3.411335     4.233159    -0.970580
 C     4.160201     5.532737    -1.012211
 H     4.836364     5.583299    -1.880078
 H     4.783466     5.648079    -0.110046
 H     3.477929     6.392788    -1.064649
 H    -0.682952     0.601187    -2.079078
 H    -1.714669    -0.703657    -2.674381
 C    -2.778979     1.133859    -2.234088
 C    -4.094391     0.711088    -2.460769
 H    -4.319291    -0.357010    -2.477956
 C    -2.514023     2.507909    -2.219473
 H    -1.490658     2.856694    -2.066122
 C    -5.125227     1.632286    -2.622733
 H    -6.156518     1.313981    -2.785348
 C    -3.532674     3.441532    -2.373420
 H    -3.335107     4.514006    -2.339527
 C    -4.831707     2.988323    -2.558181
 F    -5.820632     3.878665    -2.668884
 C    -3.427438    -2.277745     0.622318
 C    -3.682514    -3.562870     0.148240
 H    -3.652269    -3.747321    -0.927037
 C    -3.431288    -2.020543     1.991703
 H    -3.217333    -1.013349     2.354193
 C    -3.947190    -4.587033     1.050777
 H    -4.138618    -5.594661     0.671564
 C    -3.694735    -3.059693     2.882632
 H    -3.690262    -2.852997     3.956233
 C    -3.957015    -4.357576     2.433348
 C    -4.258161    -5.470222     3.395118
 H    -5.338479    -5.689387     3.423627
 H    -3.946459    -5.214158     4.417535
 H    -3.746714    -6.400698     3.106017
 C    -2.429905     1.643890     0.883895
 C    -3.818184     1.573570     0.754468
 H    -4.298561     0.618000     0.549687
 C    -1.819479     2.863697     1.162861
 H    -0.736848     2.893854     1.293784
 C    -4.567884     2.740587     0.833060
 H    -5.650755     2.680112     0.693575
 C    -2.588879     4.022869     1.244453
 H    -2.094688     4.977957     1.443042
 C    -3.973425     3.988747     1.059072
 C    -4.806824     5.236523     1.067140
 H    -5.302131     5.376950     0.092388
 H    -4.198808     6.129196     1.270277
 H    -5.601175     5.187944     1.828663
