 108
scf done:    -2167.622010
 C     1.780061    -2.371787    -1.973917
 H     2.285754    -2.187927    -2.937204
 H     2.589749    -2.554984    -1.250353
 C     0.913110    -3.621796    -2.076348
 H     0.151633    -3.532148    -2.868289
 H     1.507821    -4.528297    -2.301562
 H     0.369699    -3.827095    -1.137979
Rh     0.527158    -0.765197    -1.382603
 C     1.401789    -1.180337     2.062153
 C     3.658640    -0.798021     0.317408
 C     1.958116     1.431617     0.925391
 C    -1.149671     2.375028    -1.018199
 C    -2.781863     0.048250    -1.569448
 C    -1.723243     0.361170     1.094160
 P    -1.243276     0.560342    -0.688770
 P     1.876158    -0.357738     0.472667
 C     0.030792    -0.664709    -3.155765
 O    -0.179256    -0.488760    -4.276691
 H     2.270612    -1.244822     2.738598
 H     0.664872    -0.524757     2.555454
 C     0.784568    -2.551957     1.819170
 H    -0.008431    -2.449120     1.055416
 H     1.529645    -3.225921     1.361454
 C     0.208826    -3.192053     3.073232
 H    -0.477179    -2.475330     3.561889
 H     1.016360    -3.373796     3.805662
 C    -0.537394    -4.490412     2.800349
 H    -1.330498    -4.297033     2.055938
 H     0.148883    -5.209620     2.319882
 C    -1.147325    -5.110256     4.046775
 H    -1.678718    -6.046228     3.817480
 H    -1.870007    -4.424701     4.518721
 H    -0.375270    -5.341486     4.798307
 H     3.708771    -1.896404     0.240707
 H     4.170789    -0.522353     1.252721
 C     4.299504    -0.154681    -0.904023
 H     3.619267    -0.290406    -1.762289
 H     4.379003     0.937895    -0.749961
 C     5.681575    -0.701487    -1.264931
 H     5.568884    -1.791124    -1.420144
 C     6.164847    -0.091329    -2.575058
 H     5.448069    -0.275262    -3.390072
 H     7.138008    -0.507491    -2.878803
 H     6.285912     1.000794    -2.477658
 C     6.700546    -0.485733    -0.151421
 H     7.689829    -0.877616    -0.434750
 H     6.404692    -0.984662     0.783963
 H     6.819585     0.589863     0.065399
 H     0.930956     1.713190     1.210997
 H     2.158711     1.960294    -0.019808
 C     2.935634     1.844513     2.015265
 H     2.816506     1.184986     2.892269
 H     3.972388     1.698345     1.663616
 C     2.779367     3.296285     2.479718
 H     1.746455     3.410013     2.861500
 C     3.737142     3.591078     3.628169
 H     3.588768     2.892955     4.466883
 H     3.601891     4.613696     4.012922
 H     4.785020     3.496270     3.297728
 C     2.968660     4.293431     1.341770
 H     2.884126     5.329038     1.705559
 H     2.221514     4.163237     0.544417
 H     3.966920     4.181767     0.885610
 H    -0.178168     2.704550    -0.615144
 H    -1.037416     2.435590    -2.115220
 C    -2.261059     3.297768    -0.540007
 H    -3.243475     2.918735    -0.870566
 H    -2.292516     3.299337     0.562666
 C    -2.086316     4.729909    -1.028609
 H    -2.064921     4.737799    -2.133494
 H    -1.096142     5.104483    -0.709913
 C    -3.169136     5.679582    -0.535616
 H    -4.155887     5.297461    -0.852373
 H    -3.185988     5.666536     0.568862
 C    -2.990930     7.106742    -1.027722
 H    -3.787529     7.768299    -0.655096
 H    -3.006760     7.154288    -2.128438
 H    -2.027529     7.526224    -0.695771
 H    -2.610475     0.280632    -2.634252
 H    -3.639000     0.655971    -1.239263
 C    -3.040503    -1.443597    -1.397875
 H    -2.106003    -1.980112    -1.641106
 H    -3.248975    -1.670654    -0.335619
 C    -4.180085    -2.007640    -2.247440
 H    -3.956452    -1.761519    -3.302543
 C    -4.224116    -3.525877    -2.119896
 H    -3.263667    -3.979675    -2.409348
 H    -5.010725    -3.961964    -2.755056
 H    -4.433209    -3.824812    -1.078720
 C    -5.528126    -1.389560    -1.892794
 H    -6.336508    -1.816107    -2.506791
 H    -5.538903    -0.299816    -2.046638
 H    -5.778513    -1.581623    -0.835089
 H    -1.005637     0.955801     1.684261
 H    -1.472814    -0.690070     1.305173
 C    -3.146824     0.654168     1.552085
 H    -3.329181     1.739478     1.537039
 H    -3.876850     0.217744     0.849640
 C    -3.459633     0.114243     2.953181
 H    -2.644123     0.438288     3.627763
 C    -4.763518     0.707902     3.473583
 H    -4.718046     1.807294     3.516677
 H    -4.999477     0.339674     4.483999
 H    -5.605722     0.434935     2.815846
 C    -3.516101    -1.410243     2.977342
 H    -3.694585    -1.786868     3.996355
 H    -2.584499    -1.872340     2.617840
 H    -4.336581    -1.777719     2.338251
