 100
scf done:    -3109.289062
 C     1.118038    -3.651841     1.026775
 H     1.174210    -4.591574     0.465504
 H     2.138617    -3.358865     1.306446
 C     0.147148    -3.685399     2.192376
 H    -0.390413    -4.640469     2.285336
 H     0.618086    -3.447207     3.159070
 H    -0.676185    -2.917478     2.076954
Rh    -0.048079    -2.165490     0.131458
 C     1.884850     0.108368     2.137832
 O     3.122608    -1.175529     0.214836
 O     1.376536     0.608005    -0.541257
 C    -1.617350     0.255497    -1.947344
 O    -3.167170    -1.106240    -0.285162
 O    -1.548070     0.629229     0.810723
 P    -1.583232    -0.585786    -0.319432
 P     1.562174    -0.674818     0.502298
 C    -0.447685    -3.268836    -1.334464
 O    -0.544671    -3.811659    -2.345900
 H     0.919688     0.572529     2.395823
 H     2.006480    -0.759046     2.808732
 C     3.021657     1.076569     2.260720
 C     4.349440     0.632063     2.272404
 H     4.556799    -0.438617     2.239112
 C     2.779913     2.454034     2.307285
 H     1.750761     2.820122     2.311080
 C     5.407516     1.535184     2.283202
 H     6.446335     1.200460     2.276295
 C     3.825483     3.371343     2.313964
 H     3.644031     4.446927     2.320798
 C     5.128836     2.895403     2.288054
 F     6.141192     3.767176     2.251837
 C     3.459812    -2.024566    -0.808272
 C     2.823714    -1.976171    -2.046206
 H     2.030594    -1.246313    -2.216643
 C     4.487311    -2.936200    -0.568542
 H     4.969205    -2.951535     0.410580
 C     3.183572    -2.869301    -3.062032
 C     2.439070    -2.852926    -4.364650
 H     1.426120    -3.266587    -4.230311
 H     2.324508    -1.827772    -4.748669
 H     2.950290    -3.451913    -5.131038
 C     4.862652    -3.809047    -1.584022
 H     5.667162    -4.527013    -1.407613
 C     4.212745    -3.783291    -2.817991
 H     4.507899    -4.483454    -3.603464
 C     2.135089     1.737992    -0.725554
 C     3.518353     1.691625    -0.902173
 H     4.035592     0.734017    -0.856714
 C     1.450883     2.949860    -0.791188
 H     0.369020     2.955194    -0.655395
 C     4.241307     2.870500    -1.099166
 C     5.736529     2.837128    -1.223761
 H     6.207274     3.290344    -0.336666
 H     6.110211     1.807967    -1.313209
 H     6.078361     3.406155    -2.101846
 C     2.167284     4.124225    -1.010386
 H     1.635549     5.077608    -1.062156
 C     3.550428     4.089037    -1.154198
 H     4.106765     5.016438    -1.312874
 H    -0.609486     0.688532    -2.035569
 H    -1.666103    -0.584534    -2.660165
 C    -2.694581     1.267787    -2.193841
 C    -4.015482     0.868850    -2.432378
 H    -4.254789    -0.194884    -2.479706
 C    -2.409825     2.636607    -2.140747
 H    -1.382155     2.966468    -1.975702
 C    -5.033134     1.807358    -2.569335
 H    -6.068604     1.508539    -2.741731
 C    -3.416043     3.588421    -2.269422
 H    -3.205916     4.656786    -2.202805
 C    -4.719488     3.156461    -2.469904
 F    -5.700183     4.059998    -2.556050
 C    -3.535087    -2.083962     0.607098
 C    -3.313865    -1.922106     1.973498
 H    -2.847620    -1.002655     2.335130
 C    -4.136626    -3.238552     0.110463
 H    -4.286566    -3.341795    -0.965318
 C    -3.680041    -2.929711     2.873947
 C    -3.388225    -2.770968     4.337454
 H    -2.318058    -2.943232     4.541065
 H    -3.625197    -1.755196     4.687476
 H    -3.960522    -3.486627     4.943902
 C    -4.516582    -4.233816     1.004841
 H    -4.989632    -5.144136     0.629157
 C    -4.287572    -4.084846     2.372798
 H    -4.584596    -4.878666     3.062753
 C    -2.312098     1.761595     0.957823
 C    -3.702705     1.751015     0.841327
 H    -4.214094     0.823011     0.587304
 C    -1.636333     2.932270     1.295201
 H    -0.551656     2.905073     1.406982
 C    -4.431423     2.930971     1.008954
 C    -5.921825     2.940258     0.831811
 H    -6.201507     3.504989    -0.071666
 H    -6.320964     1.922146     0.727168
 H    -6.422816     3.421042     1.686041
 C    -2.362661     4.107071     1.476359
 H    -1.838034     5.029521     1.737219
 C    -3.745668     4.111768     1.325257
 H    -4.306148     5.040497     1.459536
