  76
scf done:    -1997.028298
 C     1.543595    -2.638149     0.702521
 H     1.754445    -3.451234    -0.010979
 H     2.525972    -2.213005     0.953229
 C     0.872884    -3.196312     1.950523
 H    -0.067376    -3.722720     1.717529
 H     1.521907    -3.918828     2.480830
 H     0.621758    -2.405604     2.678253
Rh     0.211189    -1.180475    -0.116032
 C     1.970174     0.554860     2.371829
 O     3.404147    -0.124984     0.312561
 O     1.904211     1.872042     0.022587
 C    -2.200659     0.633190    -2.156604
 O    -2.995467    -0.611418     0.036469
 O    -1.617729     1.530944     0.427668
 P    -1.614785     0.136256    -0.462978
 P     1.838265     0.315636     0.556119
 C    -0.501283    -2.646616    -1.005737
 O    -0.828698    -3.557059    -1.628296
 H     2.262281    -0.449684     2.727036
 C     3.046300     1.560075     2.755086
 H     3.131156     1.626697     3.851379
 H     4.023357     1.267322     2.347242
 H     2.798972     2.559172     2.366511
 C     0.598478     0.900016     2.937833
 H    -0.147289     0.131473     2.680909
 H     0.646512     0.985098     4.034552
 H     0.233949     1.855847     2.533449
 C     4.017906    -0.171487    -0.974306
 H     3.729199     0.743070    -1.520281
 C     3.577166    -1.388177    -1.765865
 H     2.479318    -1.429128    -1.848225
 H     3.906658    -2.313646    -1.270589
 H     4.008701    -1.358872    -2.777879
 C     5.512113    -0.132453    -0.731270
 H     5.786979     0.771019    -0.168274
 H     5.824684    -1.012575    -0.148670
 H     6.059788    -0.133524    -1.685449
 C     1.102847     2.452208    -1.007307
 H     0.050469     2.239667    -0.775959
 C     1.437686     1.886096    -2.372531
 H     1.305336     0.792800    -2.378041
 H     2.473126     2.123983    -2.661699
 H     0.766191     2.310534    -3.134805
 C     1.321719     3.947370    -0.914919
 H     1.055076     4.310981     0.088121
 H     2.377960     4.196007    -1.100604
 H     0.702427     4.475468    -1.655401
 H    -1.661218     1.579237    -2.342250
 C    -1.712721    -0.395485    -3.173605
 H    -1.938824    -0.053875    -4.195808
 H    -0.629742    -0.567969    -3.093943
 H    -2.214703    -1.364734    -3.028359
 C    -3.702850     0.856664    -2.292037
 H    -4.088085     1.637554    -1.623328
 H    -3.943631     1.154650    -3.325236
 H    -4.247490    -0.070229    -2.065044
 C    -2.979792    -1.590511     1.083379
 H    -1.929731    -1.912776     1.228407
 C    -3.803732    -2.769489     0.614754
 H    -3.378689    -3.195866    -0.304994
 H    -4.839068    -2.456780     0.407172
 H    -3.825120    -3.556625     1.383082
 C    -3.487396    -0.971374     2.368919
 H    -2.827158    -0.153927     2.690413
 H    -4.503626    -0.569104     2.233495
 H    -3.514696    -1.722044     3.172763
 C    -2.724331     2.405104     0.662094
 H    -3.658319     1.848226     0.472340
 C    -2.633515     3.611664    -0.255953
 H    -2.647373     3.323475    -1.315689
 H    -1.701241     4.163844    -0.062308
 H    -3.479206     4.293480    -0.079833
 C    -2.683964     2.815716     2.120852
 H    -2.737865     1.939525     2.780081
 H    -1.748565     3.352787     2.339838
 H    -3.528404     3.480144     2.357496
