  72
scf done:    -1696.206780
 C    -1.378501     2.717175    -0.144927
 H    -1.242668     3.403625    -0.997682
 H    -2.430482     2.397393    -0.220925
 C    -1.180887     3.485230     1.157679
 H    -0.176321     3.933529     1.218552
 H    -1.910326     4.309162     1.276975
 H    -1.285186     2.838430     2.046327
Rh     0.008958     1.093006    -0.210500
 C    -2.847989     0.229526     1.545681
 C    -3.112381     0.099677    -1.417256
 C    -1.734344    -2.136420     0.072713
 C     2.834015    -0.294292    -1.628190
 C     3.072075     0.600671     1.183782
 C     1.804498    -2.076142     0.571060
 P     1.911908    -0.292389     0.006107
 P    -1.934969    -0.275881    -0.006114
 C     1.109533     2.402331    -0.860286
 O     1.734379     3.235851    -1.358877
 H    -2.766281     1.325370     1.470630
 C    -4.332268    -0.088755     1.683961
 H    -4.711924     0.356508     2.618454
 H    -4.920907     0.343201     0.862473
 H    -4.545588    -1.165422     1.726590
 C    -2.034576    -0.181819     2.769226
 H    -0.993973     0.167815     2.679349
 H    -2.462679     0.267033     3.679710
 H    -2.018035    -1.272955     2.918504
 H    -3.546778     1.059789    -1.090024
 C    -2.337102     0.374648    -2.704365
 H    -3.009699     0.797186    -3.468434
 H    -1.512737     1.080478    -2.519523
 H    -1.903243    -0.547824    -3.119769
 C    -4.262557    -0.871192    -1.665047
 H    -4.860801    -1.074289    -0.767922
 H    -4.939419    -0.445804    -2.423991
 H    -3.907756    -1.833761    -2.060641
 H    -0.907184    -2.221329     0.793812
 C    -2.877355    -2.991569     0.609474
 H    -2.563655    -4.048845     0.622167
 H    -3.148750    -2.723995     1.639179
 H    -3.782603    -2.928606    -0.008548
 C    -1.224222    -2.666241    -1.264860
 H    -0.428701    -2.030914    -1.678491
 H    -0.820410    -3.684798    -1.144229
 H    -2.027692    -2.723609    -2.013413
 H     2.731751     0.766251    -1.911740
 C     4.325487    -0.608545    -1.664932
 H     4.691944    -0.492634    -2.698344
 H     4.905647     0.086148    -1.042051
 H     4.564689    -1.632682    -1.348959
 C     2.038398    -1.093083    -2.655604
 H     0.996233    -0.740232    -2.691850
 H     2.475110    -0.967063    -3.659132
 H     2.032540    -2.172348    -2.434235
 H     3.430086     1.422086     0.535279
 C     2.292282     1.242721     2.331339
 H     2.940417     1.939686     2.887275
 H     1.418532     1.796884     1.953442
 H     1.930865     0.488037     3.046357
 C     4.286826    -0.150938     1.719754
 H     4.892534    -0.619910     0.934809
 H     4.939040     0.549099     2.267350
 H     3.993614    -0.934828     2.433494
 H     0.985378    -2.447711    -0.063498
 C     2.990137    -3.008694     0.346738
 H     2.735225    -4.015910     0.717193
 H     3.240300    -3.111109    -0.717470
 H     3.893742    -2.684776     0.880048
 C     1.320092    -2.132438     2.018027
 H     0.501440    -1.422856     2.205433
 H     0.956212    -3.143774     2.262033
 H     2.129301    -1.898848     2.725223
