  64
scf done:    -1991.221924
 C     1.081299    -2.899496     1.281944
 H     1.254284    -3.860436     0.771843
 H     2.084870    -2.548020     1.577071
 C     0.213419    -3.108533     2.515002
 H    -0.761018    -3.555308     2.258952
 H     0.690210    -3.779497     3.255315
 H    -0.000353    -2.161558     3.041883
Rh    -0.010091    -1.510137     0.110158
 C     1.910383     0.294851     2.475569
 C     3.309325    -0.562937     0.103730
 C     1.647833     1.673519    -0.038516
 C    -1.503033     0.426973    -2.503967
 C    -3.299349    -0.528975    -0.489950
 C    -1.626444     1.621202     0.131503
 P    -1.547115    -0.001035    -0.723245
 P     1.651742    -0.013362     0.686575
 C    -0.614123    -2.940294    -0.897367
 O    -0.843533    -3.800452    -1.629282
 H     1.006047     0.764387     2.888231
 H     2.049601    -0.679108     2.964263
 H     2.782351     0.931966     2.680097
 C     3.420201    -1.689259    -0.715974
 C     4.458764     0.172441     0.418849
 C     5.807887    -1.356435    -0.874229
 C     5.702612    -0.225939    -0.062397
 C     4.665919    -2.083283    -1.203617
 H     2.511840    -2.249077    -0.958076
 H     4.742197    -2.966155    -1.842837
 H     6.784375    -1.667278    -1.253849
 H     6.594476     0.352370     0.191006
 H     4.383149     1.075323     1.031133
 C     1.736845     1.769733    -1.434544
 C     1.561733     2.845332     0.716599
 C     1.650967     4.178610    -1.298730
 C     1.562714     4.090623     0.087634
 C     1.737961     3.011954    -2.060566
 H     1.820841     0.855268    -2.029583
 H     1.815735     3.071938    -3.149077
 H     1.653682     5.155431    -1.788237
 H     1.486740     4.998125     0.691133
 H     1.479568     2.799955     1.803615
 H    -1.538457    -0.517561    -3.064734
 H    -2.341520     1.064297    -2.819012
 H    -0.551893     0.929851    -2.725871
 C    -3.586558    -1.727398     0.169196
 C    -4.358452     0.280234    -0.922744
 C    -5.955066    -1.319487    -0.073009
 C    -5.677303    -0.114764    -0.721550
 C    -4.908989    -2.121205     0.376081
 H    -2.759396    -2.349364     0.521687
 H    -5.119346    -3.061492     0.891251
 H    -6.991015    -1.628488     0.086551
 H    -6.494669     0.523503    -1.066016
 H    -4.153627     1.238960    -1.407251
 C    -1.656662     1.591400     1.533119
 C    -1.673492     2.853899    -0.522369
 C    -1.795950     4.000135     1.603429
 C    -1.756991     4.037231     0.212417
 C    -1.743722     2.771250     2.264554
 H    -1.615490     0.625721     2.048000
 H    -1.774602     2.733894     3.356380
 H    -1.863364     4.928526     2.175621
 H    -1.783591     4.995895    -0.311099
 H    -1.629017     2.905399    -1.611765
