  76
scf done:    -2142.161395
 C    -1.399991    -2.614172    -1.482393
 H    -1.322315    -3.565024    -0.923459
 H    -2.450895    -2.305853    -1.343856
 C    -1.168219    -2.893950    -2.964204
 H    -0.164672    -3.305737    -3.156285
 H    -1.897358    -3.621742    -3.365930
 H    -1.254548    -1.983733    -3.579080
Ir    -0.016353    -1.245973    -0.544815
 C    -2.582815     0.500464    -2.087429
 C    -3.250171    -0.538260     0.619283
 C    -1.737514     1.875660     0.383625
 C     1.091027     0.964463     2.127475
 C     3.117598    -0.648999     0.895175
 C     2.050544     1.554995    -0.590251
 P     1.521284     0.164447     0.488954
 P    -1.897012     0.207211    -0.370273
 C     1.273790    -2.498140    -0.986224
 O     2.049297    -3.281397    -1.322016
 H    -2.974496    -0.504206    -2.319468
 C    -3.710230     1.515345    -2.204690
 H    -3.985586     1.634507    -3.264921
 H    -4.616149     1.201781    -1.670086
 H    -3.408464     2.505113    -1.828103
 C    -1.451074     0.787819    -3.073165
 H    -0.588843     0.127948    -2.885269
 H    -1.806503     0.623363    -4.102522
 H    -1.104101     1.830063    -3.013245
 C    -2.988761    -1.754689     1.262833
 C    -4.501012     0.069445     0.800827
 C    -5.209168    -1.759786     2.211539
 C    -5.475273    -0.541267     1.586394
 C    -3.962455    -2.361169     2.054286
 H    -2.004862    -2.216462     1.126461
 H    -3.743101    -3.310577     2.548132
 H    -5.974731    -2.236380     2.828712
 H    -6.446439    -0.057983     1.717359
 H    -4.711000     1.041496     0.352056
 C    -1.036037     2.879693    -0.298410
 C    -2.218234     2.152098     1.671510
 C    -1.320493     4.394018     1.563452
 C    -2.004872     3.397555     2.257994
 C    -0.840559     4.130953     0.282044
 H    -0.609806     2.682045    -1.282270
 H    -0.290417     4.896394    -0.269602
 H    -1.158936     5.372548     2.021794
 H    -2.379536     3.589314     3.266328
 H    -2.753937     1.383022     2.229866
 H     0.493449     1.844674     1.837091
 C     0.200454     0.030472     2.938058
 H    -0.156584     0.540944     3.846913
 H    -0.672304    -0.306418     2.361583
 H     0.753187    -0.868255     3.254405
 C     2.293946     1.412841     2.950342
 H     3.007352     2.024789     2.381043
 H     1.954377     2.004258     3.816258
 H     2.851636     0.545060     3.333182
 C     3.073093    -1.886640     1.550864
 C     4.360886    -0.071480     0.617670
 C     5.484678    -1.942521     1.657163
 C     5.537469    -0.718850     0.992517
 C     4.248680    -2.524969     1.936821
 H     2.104543    -2.358801     1.738131
 H     4.199311    -3.490531     2.445782
 H     6.408013    -2.448436     1.949409
 H     6.503025    -0.261956     0.761883
 H     4.411447     0.889163     0.099988
 C     2.209095     1.251450    -1.950778
 C     2.253179     2.873352    -0.167994
 C     2.765775     3.551339    -2.432186
 C     2.606561     3.864615    -1.083895
 C     2.568518     2.238891    -2.863691
 H     2.021534     0.227050    -2.285592
 H     2.686031     1.984046    -3.919658
 H     3.040773     4.329811    -3.148024
 H     2.755382     4.890774    -0.738192
 H     2.115772     3.146754     0.878446
