  64
scf done:    -1985.040131
 C    -1.077725    -2.801593    -1.213805
 H    -1.271328    -3.723812    -0.640417
 H    -2.081724    -2.449116    -1.509498
 C    -0.271487    -3.139563    -2.464033
 H     0.704574    -3.584890    -2.212116
 H    -0.797747    -3.859147    -3.119255
 H    -0.059605    -2.246435    -3.076892
Ir     0.032376    -1.369658    -0.061600
 C    -1.920333     0.373498    -2.454932
 C    -3.305243    -0.454792    -0.055440
 C    -1.687783     1.823534     0.027617
 C     1.452945     0.682760     2.522883
 C     3.294338    -0.296923     0.541544
 C     1.573554     1.786795    -0.155073
 P     1.530029     0.195296     0.759373
 P    -1.668742     0.122981    -0.658720
 C     0.845234    -2.790605     0.815983
 O     1.224042    -3.672558     1.456048
 H    -1.024188     0.852663    -2.873748
 H    -2.031670    -0.618052    -2.914282
 H    -2.805963     0.983770    -2.680579
 C    -3.383730    -1.558456     0.798317
 C    -4.473032     0.241080    -0.391264
 C    -5.779129    -1.282826     0.950598
 C    -5.705197    -0.175205     0.104592
 C    -4.618170    -1.969513     1.299656
 H    -2.459334    -2.085445     1.054492
 H    -4.670758    -2.834383     1.965214
 H    -6.746595    -1.607620     1.341417
 H    -6.612399     0.371103    -0.164603
 H    -4.421830     1.126126    -1.031453
 C    -1.787028     1.952051     1.419973
 C    -1.618553     2.975931    -0.757999
 C    -1.738047     4.357556     1.222414
 C    -1.643089     4.236450    -0.161016
 C    -1.809929     3.209754     2.013790
 H    -1.860841     1.051589     2.037001
 H    -1.893380     3.296449     3.100014
 H    -1.758346     5.346304     1.686900
 H    -1.579320     5.129506    -0.786939
 H    -1.529148     2.903616    -1.842924
 H     1.513997    -0.240628     3.115663
 H     2.255168     1.366464     2.834047
 H     0.478922     1.153904     2.710844
 C     3.606538    -1.361635    -0.309758
 C     4.337120     0.414576     1.148355
 C     5.964480    -1.018485     0.084722
 C     5.662809     0.052156     0.927212
 C     4.934686    -1.720228    -0.537290
 H     2.790662    -1.907034    -0.792914
 H     5.163016    -2.556407    -1.202475
 H     7.005427    -1.302156    -0.088573
 H     6.466692     0.612041     1.411386
 H     4.120137     1.270316     1.792409
 C     1.593768     1.708110    -1.554898
 C     1.614166     3.041570     0.455683
 C     1.704155     4.114665    -1.709602
 C     1.677766     4.199386    -0.320168
 C     1.660291     2.863231    -2.327289
 H     1.561099     0.723671    -2.033466
 H     1.683333     2.788416    -3.417445
 H     1.756698     5.023425    -2.313998
 H     1.699333     5.175876     0.169582
 H     1.580251     3.130195     1.543039
