  96
scf done:    -2004.310416
 C     0.539337    -1.705470    -2.790307
 H     0.897794    -2.749210    -2.794562
 H    -0.514832    -1.786871    -3.114374
 C     1.325728    -0.911524    -3.831340
 H     2.401541    -0.895278    -3.595597
 H     1.220809    -1.329791    -4.850332
 H     1.009611     0.144395    -3.882873
Ir     0.743872    -0.883218    -0.811634
 C    -1.771767     0.719473    -2.794831
 C    -2.621582    -1.542343    -1.111555
 C    -2.204097     1.048406     0.115928
 C     0.140798    -0.875868     2.688522
 C     2.849195    -0.229735     1.905200
 C     0.789681     1.768544     1.674273
 P     1.105668    -0.026072     1.330658
 P    -1.485826    -0.094717    -1.143217
 C     2.329057    -1.825129    -0.752737
 O     3.292194    -2.463239    -0.727339
 H    -1.135794     0.110940    -3.456163
 C    -3.191428     0.665711    -3.347309
 H    -3.207216     1.104928    -4.358054
 H    -3.561853    -0.365379    -3.436642
 H    -3.908703     1.230826    -2.735198
 C    -1.196510     2.131102    -2.787778
 H    -0.149860     2.131835    -2.447503
 H    -1.217091     2.554357    -3.804413
 H    -1.770290     2.811549    -2.137851
 H    -3.659280    -1.219140    -1.293374
 H    -2.322817    -2.176223    -1.962414
 C    -2.504633    -2.327342     0.187559
 H    -1.435684    -2.542563     0.360271
 H    -2.833416    -1.700386     1.036104
 C    -3.300477    -3.623432     0.192658
 H    -2.965599    -4.256807    -0.648511
 H    -4.368134    -3.408528     0.001342
 C    -3.164090    -4.399922     1.495254
 H    -2.094386    -4.601251     1.681079
 H    -3.495761    -3.760395     2.333019
 C    -3.942579    -5.705245     1.508259
 H    -3.822806    -6.241189     2.462005
 H    -3.604847    -6.378606     0.704165
 H    -5.020220    -5.530089     1.358091
 H    -1.988124     0.564048     1.082239
 H    -1.573660     1.950708     0.097467
 C    -3.674376     1.433977     0.057811
 H    -3.874729     2.024984    -0.850361
 H    -4.305618     0.532168    -0.020475
 C    -4.102991     2.240803     1.276853
 H    -3.460454     3.136427     1.364198
 H    -3.912197     1.648379     2.190573
 C    -5.563759     2.667323     1.246409
 H    -5.748137     3.259222     0.332352
 H    -6.199942     1.769323     1.152642
 C    -5.984161     3.467855     2.468233
 H    -7.043313     3.761857     2.417083
 H    -5.387663     4.389120     2.566720
 H    -5.844786     2.886619     3.393957
 H    -0.904621    -0.762755     2.349556
 C     0.464889    -2.366485     2.690918
 H    -0.256907    -2.919474     3.313094
 H     0.436104    -2.779200     1.670685
 H     1.468320    -2.556566     3.103733
 C     0.268969    -0.261626     4.076439
 H    -0.043194     0.792506     4.102323
 H    -0.363376    -0.809790     4.793989
 H     1.303040    -0.317854     4.451481
 H     2.928441     0.052506     2.968405
 H     3.060945    -1.309667     1.843847
 C     3.867913     0.536932     1.069401
 H     3.601518     0.455175     0.000932
 H     3.814638     1.612044     1.313799
 C     5.293345     0.042978     1.269903
 H     5.341544    -1.023035     0.984211
 H     5.553651     0.083195     2.343839
 C     6.322947     0.826143     0.467923
 H     6.048110     0.787343    -0.600871
 H     6.270144     1.892694     0.751378
 C     7.743837     0.317568     0.649662
 H     8.464514     0.900584     0.056259
 H     7.831750    -0.735826     0.338792
 H     8.057572     0.375306     1.704635
 H    -0.271683     1.853582     1.959396
 H     1.371313     2.076142     2.559636
 C     1.074349     2.679357     0.487258
 H     2.160108     2.735664     0.307454
 H     0.662403     2.212772    -0.423670
 C     0.510553     4.082616     0.655772
 H     0.917745     4.539566     1.576318
 H    -0.582567     4.019083     0.818655
 C     0.788249     4.995229    -0.530509
 H     1.879545     5.065808    -0.683141
 H     0.391067     4.524324    -1.446813
 C     0.199801     6.387741    -0.373506
 H     0.417473     7.022757    -1.245560
 H     0.604897     6.895289     0.516811
 H    -0.895519     6.347537    -0.257014
