 120
scf done:    -3214.848248
 C     1.791173    -2.414524    -1.898543
 H     1.693933    -2.311695    -2.993705
 H     2.768493    -1.968432    -1.647432
 C     1.850423    -3.906029    -1.578325
 H     0.964798    -4.446258    -1.948810
 H     2.734460    -4.390900    -2.034171
 H     1.907849    -4.105653    -0.496194
Ir     0.175182    -1.241470    -1.082371
 C     2.281926    -0.580297     1.476847
 C     3.368359     0.585130    -1.054289
 C     1.474197     2.032578     0.375146
 C    -2.016628     1.634900    -0.701359
 C    -3.315712    -0.852213    -0.502695
 C    -1.463343    -0.108425     1.674285
 P    -1.662818    -0.091087    -0.166015
 P     1.815294     0.265312    -0.096563
 C    -0.893811    -2.665741    -1.463196
 O    -1.567396    -3.594633    -1.642706
 H     3.119752    -0.064839     1.951072
 H     1.398310    -0.425673     2.115757
 C     2.547219    -2.066008     1.329513
 H     1.674223    -2.526524     0.838928
 H     3.401048    -2.244083     0.653314
 C     2.808034    -2.728309     2.674078
 H     1.955855    -2.519369     3.347388
 H     3.688481    -2.264414     3.157296
 C     3.019975    -4.232523     2.577198
 H     2.140554    -4.689614     2.089485
 H     3.866382    -4.436427     1.898163
 C     3.264328    -4.898995     3.921277
 H     3.411844    -5.985160     3.819525
 H     2.414063    -4.741303     4.605135
 H     4.159585    -4.486748     4.414827
 C     4.544809     1.042407    -0.423980
 O     4.460325     1.292685     0.897885
 C     5.566460     1.795935     1.586709
 H     5.245967     1.931234     2.627934
 H     6.420747     1.096988     1.566157
 H     5.891681     2.770400     1.182634
 C     3.393641     0.453623    -2.461360
 O     2.238805     0.165997    -3.069471
 C     2.215865    -0.163371    -4.425585
 H     1.185042    -0.471405    -4.643595
 H     2.891603    -1.004306    -4.655935
 H     2.481836     0.699680    -5.062835
 C     4.581558     0.648520    -3.182779
 H     4.598960     0.516677    -4.263568
 C     5.730041     1.246494    -1.141154
 H     6.637842     1.577894    -0.639339
 C     5.735447     1.030092    -2.513708
 H     6.658982     1.181760    -3.077799
 C     1.670524     2.649338     1.626392
 O     2.041674     1.871368     2.659008
 C     2.310253     2.432530     3.906667
 H     2.595534     1.600541     4.563673
 H     3.139746     3.160904     3.862449
 H     1.425861     2.931486     4.339902
 C     1.066933     2.859339    -0.692050
 O     0.911813     2.225772    -1.862357
 C     0.489953     2.918910    -2.998034
 H     0.407862     2.171695    -3.796401
 H     1.218039     3.693359    -3.296637
 H    -0.496733     3.389470    -2.845296
 C     0.844719     4.231906    -0.534610
 H     0.518420     4.844762    -1.373563
 C     1.479986     4.030652     1.787192
 H     1.654204     4.502259     2.753286
 C     1.063252     4.803926     0.711881
 H     0.910243     5.877325     0.847892
 H    -1.210638     2.259635    -0.302116
 H    -1.890929     1.580045    -1.793880
 C    -3.374820     2.214266    -0.341435
 H    -4.166125     1.679069    -0.892208
 H    -3.579787     2.045084     0.727371
 C    -3.457816     3.703599    -0.645056
 H    -3.272187     3.870113    -1.722947
 H    -2.635355     4.226133    -0.122195
 C    -4.786478     4.336135    -0.257540
 H    -5.604284     3.809842    -0.780682
 H    -4.964712     4.162192     0.818835
 C    -4.860163     5.825012    -0.555380
 H    -5.829698     6.254966    -0.260483
 H    -4.721781     6.024226    -1.630510
 H    -4.073306     6.379081    -0.017610
 C    -4.284643    -1.189534     0.460193
 O    -4.075973    -0.756417     1.717220
 C    -4.788587    -1.315655     2.779796
 H    -4.319623    -0.937642     3.698183
 H    -5.852062    -1.016587     2.771473
 H    -4.727730    -2.417893     2.773988
 C    -3.604759    -1.148798    -1.847597
 O    -2.723838    -0.674871    -2.750820
 C    -2.648806    -1.258812    -4.021730
 H    -1.725549    -0.881277    -4.480096
 H    -3.508485    -0.976458    -4.655060
 H    -2.588017    -2.357187    -3.952701
 C    -4.743409    -1.874532    -2.212900
 H    -4.934060    -2.121298    -3.256801
 C    -5.426481    -1.920378     0.106744
 H    -6.159449    -2.199770     0.862964
 C    -5.635759    -2.266716    -1.223337
 H    -6.527144    -2.836639    -1.496341
 C    -1.325236    -1.390282     2.252829
 O    -1.637812    -2.417403     1.450141
 C    -1.247549    -3.721774     1.777698
 H    -1.479295    -4.337603     0.900408
 H    -0.165019    -3.776680     1.979862
 H    -1.802830    -4.106952     2.651162
 C    -1.305883     1.000664     2.521629
 O    -1.506718     2.229589     1.995445
 C    -1.687847     3.323284     2.845283
 H    -1.958169     4.172575     2.204709
 H    -0.765621     3.587565     3.388918
 H    -2.497982     3.140387     3.572922
 C    -0.952552     0.835240     3.870510
 H    -0.824400     1.703901     4.514723
 C    -0.943744    -1.563406     3.586194
 H    -0.821082    -2.562641     4.002672
 C    -0.755069    -0.439144     4.383994
 H    -0.463189    -0.560798     5.429922
