  60
scf done:    -1532.923355
 C     1.219675    -2.387153    -0.908567
 H     0.814229    -2.826622    -1.837120
 H     2.201549    -1.983898    -1.214270
 C     1.446463    -3.505442     0.106147
 H     0.503456    -4.005781     0.378176
 H     2.129368    -4.286865    -0.277121
 H     1.881612    -3.134271     1.048591
Ir    -0.150003    -0.859161    -0.244043
 C     3.132871    -0.260125     0.874781
 C     2.513781     0.750229    -1.809513
 C     1.644204     2.270445     0.506282
 C    -2.010091     2.049972    -0.926451
 C    -3.450679     0.050188     0.578795
 C    -1.542586     1.726918     1.928083
 P    -1.741726     0.729792     0.372207
 P     1.785015     0.533778    -0.132301
 C    -1.453227    -2.123741    -0.578215
 O    -2.243727    -2.925413    -0.834727
 H     3.262080    -1.220076     0.347573
 C     4.476192     0.456206     0.912965
 H     5.228850    -0.192812     1.389060
 H     4.852461     0.712460    -0.088337
 H     4.426859     1.379914     1.509648
 C     2.615132    -0.571147     2.274667
 H     1.654454    -1.107122     2.228735
 H     3.338375    -1.198730     2.819123
 H     2.470434     0.346974     2.867552
 H     2.831722    -0.254141    -2.128992
 C     1.512036     1.323231    -2.801114
 H     1.178000     2.333128    -2.513865
 H     0.620236     0.680330    -2.852943
 H     3.420642     1.371706    -1.744821
 H     1.951091     1.395101    -3.807767
 H     1.598973     2.181923     1.604377
 C     2.679847     3.301588     0.080985
 H     2.661530     3.470109    -1.005806
 H     3.703497     3.013964     0.353813
 H     0.644147     2.611376     0.201605
 H     2.470438     4.269850     0.561816
 H    -0.995346     2.465171    -1.063731
 C    -2.417090     1.393815    -2.242051
 H    -2.366549     2.119576    -3.069372
 H    -1.757837     0.543828    -2.476892
 H    -3.451626     1.017887    -2.198542
 C    -2.948833     3.185022    -0.538240
 H    -2.620104     3.715836     0.367042
 H    -3.004187     3.926341    -1.352181
 H    -3.974490     2.823327    -0.364418
 H    -3.677047    -0.483020    -0.357860
 C    -3.615587    -0.890163     1.763320
 H    -3.552509    -0.352516     2.721194
 H    -2.843194    -1.673970     1.765122
 H    -4.162413     0.889113     0.651292
 H    -4.597288    -1.386626     1.730223
 H    -2.533798     2.104173     2.230702
 C    -0.873056     0.968232     3.063176
 H     0.093813     0.558291     2.740932
 H    -1.477364     0.114517     3.400143
 H    -0.944170     2.613955     1.666108
 H    -0.703461     1.624263     3.931434
