  46
scf done:    -1597.998602
 C    -1.372349    -2.405022    -0.450900
 H    -1.820909    -2.767177     0.492665
 H    -2.217145    -1.992011    -1.034479
 C    -0.786767    -3.580834    -1.225283
 H    -0.029092    -4.122589    -0.636334
 H    -1.560358    -4.315815    -1.515122
 H    -0.291227    -3.254176    -2.154294
Ir     0.047288    -0.848027    -0.042202
 C    -3.171611     0.069827     0.949184
 O    -1.389387     2.068333     0.481270
 O    -2.546140     0.848301    -1.478677
 C     1.721913     1.911933     1.522381
 O     3.111696     0.557164    -0.203443
 O     1.197857     1.973486    -1.175618
 P     1.511720     0.888953     0.029190
 P    -1.748731     0.557665    -0.073131
 C     1.230043    -2.104207     0.697066
 O     1.890302    -2.820651     1.311321
 H    -3.502661    -0.903200     0.555500
 C    -2.808194    -0.024741     2.423202
 H    -2.468994     0.944795     2.818895
 H    -1.989521    -0.745254     2.572374
 H    -3.987947     0.785212     0.758169
 H    -3.671505    -0.353764     3.020020
 C    -2.355937     3.095461     0.510015
 H    -2.969693     3.093866    -0.404696
 H    -3.017536     3.003328     1.388197
 H    -1.819163     4.052182     0.576908
 C    -1.771570     0.884259    -2.668446
 H    -0.919813     1.575855    -2.572259
 H    -1.380976    -0.118523    -2.907561
 H    -2.434801     1.218806    -3.477492
 H     0.771412     2.458787     1.623035
 C     2.002374     1.055513     2.748711
 H     2.944188     0.498707     2.633722
 H     1.196533     0.321476     2.903414
 H     2.530592     2.639391     1.348067
 H     2.081432     1.676558     3.653392
 C     3.496195    -0.328068    -1.232273
 H     2.774467    -1.156311    -1.339855
 H     3.571265     0.198539    -2.198614
 H     4.481189    -0.740283    -0.972477
 C     1.979316     3.132907    -1.350448
 H     1.667181     3.934887    -0.660216
 H     3.051831     2.926523    -1.198764
 H     1.830179     3.483785    -2.381643
