  94
scf done:    -2377.874422
 C    -0.378666    -2.861818    -1.856529
 H    -0.770113    -3.839349    -1.523575
 H    -1.221300    -2.386688    -2.378829
 C     0.742211    -3.084096    -2.868344
 H     1.577087    -3.660644    -2.438552
 H     0.393999    -3.633444    -3.762820
 H     1.172473    -2.132404    -3.224568
Ir     0.323188    -1.728298    -0.169948
 C    -1.814325     0.723861    -1.958100
 C    -2.974252    -1.532858    -0.463984
 C    -1.951885     0.924359     0.912072
 C     0.829538    -0.563442     3.154607
 C     3.261612    -1.151334     1.705543
 C     1.810509     1.290996     1.203427
 P     1.509081    -0.519835     1.431296
 P    -1.562955    -0.312760    -0.451266
 C     1.160492    -3.292334     0.336756
 O     1.553991    -4.309126     0.721282
 H    -1.099269     1.553763    -1.850071
 C    -1.593271     0.043248    -3.297192
 H    -2.314432    -0.767773    -3.480455
 H    -0.584958    -0.388696    -3.370085
 H    -2.817382     1.175153    -1.891469
 H    -1.709113     0.774244    -4.111916
 H    -2.916923    -1.981635    -1.466301
 H    -2.641579    -2.320049     0.224454
 C    -4.369124    -1.082250    -0.173659
 C    -5.124411    -0.457773    -1.173476
 H    -4.679195    -0.314855    -2.161511
 C    -4.951732    -1.300756     1.093423
 C    -4.208357    -2.012494     2.188394
 H    -3.235001    -1.547747     2.410268
 H    -3.996417    -3.059244     1.915561
 H    -4.794339    -2.022930     3.117470
 C    -6.423132    -0.019759    -0.936140
 H    -6.987671     0.473553    -1.730474
 C    -6.261518    -0.858827     1.314770
 H    -6.715577    -1.025545     2.295432
 C    -6.994100    -0.216429     0.318900
 H    -8.013272     0.120509     0.522286
 H    -2.436942     0.334673     1.704104
 H    -0.971380     1.217592     1.306984
 C    -2.781685     2.140152     0.586555
 C    -4.171226     2.092108     0.747987
 H    -4.629710     1.180135     1.129763
 C    -2.195414     3.344052     0.134283
 C    -0.709632     3.530879     0.040607
 H    -0.190026     2.705697    -0.464115
 H    -0.263137     3.621189     1.045682
 H    -0.460492     4.451172    -0.504766
 C    -4.985106     3.175771     0.433369
 H    -6.066110     3.093841     0.566869
 C    -3.029303     4.421404    -0.186438
 H    -2.571227     5.347335    -0.545092
 C    -4.412538     4.347137    -0.051374
 H    -5.035653     5.205801    -0.312699
 H     0.863478    -1.630790     3.430349
 C     1.481492     0.306322     4.217049
 H     1.351286     1.378042     4.005689
 H     2.562139     0.114923     4.307911
 H    -0.241374    -0.325675     3.052860
 H     1.035703     0.112817     5.204917
 H     3.449636    -1.114504     2.788933
 H     3.257487    -2.210382     1.413257
 C     4.331388    -0.376518     0.992726
 C     5.010460     0.634032     1.683969
 H     4.793616     0.785519     2.746126
 C     4.642074    -0.607506    -0.364077
 C     3.998516    -1.719600    -1.134243
 H     2.897105    -1.663240    -1.103156
 H     4.267659    -2.703874    -0.715547
 H     4.311505    -1.705031    -2.186747
 C     5.948463     1.447131     1.053669
 H     6.461647     2.230863     1.616099
 C     5.578478     0.224996    -0.984907
 H     5.803714     0.061410    -2.041945
 C     6.220235     1.251452    -0.296957
 H     6.940610     1.888886    -0.814769
 H     0.882001     1.799204     1.516414
 H     2.564515     1.587065     1.946354
 C     2.222319     1.785548    -0.160296
 C     1.932468     1.078399    -1.331147
 H     1.429198     0.103107    -1.255905
 C     2.875125     3.033324    -0.263802
 C     3.175338     3.857389     0.953322
 H     3.852466     3.324982     1.640108
 H     2.260671     4.097040     1.519792
 H     3.656910     4.805618     0.678028
 C     2.284190     1.567395    -2.585999
 H     2.047985     0.983667    -3.479085
 C     3.227119     3.509096    -1.530695
 H     3.738158     4.472908    -1.606230
 C     2.940064     2.790034    -2.688226
 H     3.227769     3.186884    -3.664763
