  74
scf done:    -4202.277905
 C     0.950759     1.079297     3.641213
 H     0.939395     0.486663     4.572882
 H     2.014532     1.134235     3.348227
 C     0.442596     2.489507     3.927274
 H    -0.567975     2.478807     4.365695
 H     1.099375     3.031154     4.631661
 H     0.375224     3.105234     3.014327
Ir    -0.245409     0.097302     2.148214
 C     2.470257    -1.897115     2.528834
 O     1.562708    -1.589230    -0.057247
 O     3.048993     0.201714     1.065133
 C    -1.567675    -2.428841    -0.079580
 O    -3.117017    -0.298552     0.693609
 O    -1.207504     0.006855    -1.039495
 P    -1.511891    -0.680587     0.443356
 P     1.707348    -0.729529     1.360244
 C    -1.689734     0.127706     3.357570
 O    -2.518176    -0.004131     4.140556
 H     2.569605    -1.318970     3.461445
 C     1.612869    -3.137098     2.735181
 H     1.553970    -3.743664     1.818334
 H     0.589862    -2.858007     3.030762
 H     3.485844    -2.148452     2.191238
 H     2.039656    -3.770711     3.525947
 C     2.445356    -2.444284    -0.653500
 C     1.897809    -3.392904    -1.521756
 H     0.818519    -3.405391    -1.677880
 C     3.829319    -2.397822    -0.462720
 H     4.269345    -1.643949     0.189206
 C     2.718786    -4.296331    -2.185418
 H     2.293249    -5.036830    -2.864395
 C     4.652133    -3.307455    -1.123891
 H     5.733025    -3.276583    -0.977685
 C     4.097975    -4.255008    -1.980598
Cl     5.124589    -5.381946    -2.800856
 C     3.023671     1.274377     0.201828
 C     3.709217     1.166696    -1.006838
 H     4.196439     0.226811    -1.269427
 C     2.379614     2.461675     0.547710
 H     1.834643     2.527091     1.489709
 C     3.776738     2.259131    -1.865301
 H     4.316270     2.191337    -2.811130
 C     2.446134     3.556327    -0.309658
 H     1.948178     4.492751    -0.055635
 C     3.150814     3.450926    -1.507885
Cl     3.232119     4.805703    -2.585016
 H    -2.257284    -2.907133     0.636480
 C    -1.931162    -2.749233    -1.521711
 H    -1.259059    -2.229049    -2.217891
 H    -2.958925    -2.451178    -1.768415
 H    -0.563789    -2.804266     0.168311
 H    -1.845265    -3.832830    -1.696769
 C    -4.138376    -0.649927    -0.147265
 C    -4.997889    -1.680471     0.233346
 H    -4.835707    -2.179724     1.190549
 C    -4.341590     0.029292    -1.349714
 H    -3.676939     0.847992    -1.628540
 C    -6.048157    -2.054966    -0.599088
 H    -6.726477    -2.860466    -0.313676
 C    -5.389859    -0.344164    -2.184865
 H    -5.558122     0.175413    -3.129388
 C    -6.234261    -1.389374    -1.810402
Cl    -7.534914    -1.856783    -2.853903
 C    -0.973909     1.346255    -1.187187
 C    -1.512218     2.300936    -0.318904
 H    -2.127187     1.993144     0.528365
 C    -0.204740     1.746504    -2.279936
 H     0.217258     0.983288    -2.935658
 C    -1.277160     3.653485    -0.548897
 H    -1.691545     4.405864     0.123858
 C     0.018673     3.098442    -2.517187
 H     0.629359     3.423209    -3.360474
 C    -0.519791     4.047286    -1.648260
Cl    -0.222978     5.733810    -1.915597
