  88
scf done:    -2147.967104
 C     0.438193     3.541303    -0.836279
 H    -0.080976     4.265762    -0.184895
 H     1.498652     3.611637    -0.532347
 C     0.301997     3.989582    -2.289447
 H    -0.752704     4.037860    -2.604140
 H     0.739411     4.990444    -2.462723
 H     0.798564     3.297507    -2.990563
Ir    -0.401079     1.587848    -0.453759
 C     2.857913     1.293346    -1.815041
 O     2.707508     1.604771     0.814029
 O     1.974449    -0.708231    -0.095643
 C    -0.888220    -1.167358     1.685918
 O    -2.944070    -0.345879     0.003698
 O    -0.987418    -1.764301    -0.880722
 P    -1.300460    -0.437099     0.046349
 P     1.806055     0.904549    -0.359955
 C    -2.100526     2.379382    -0.599073
 O    -3.127516     2.882046    -0.690294
 H     2.590168     2.349916    -1.988176
 C     4.363692     1.221635    -1.589228
 H     4.884463     1.691189    -2.438783
 H     4.656734     1.751021    -0.672469
 H     4.723266     0.184821    -1.521561
 C     2.384526     0.482360    -3.015264
 H     1.303321     0.609496    -3.179251
 H     2.906726     0.810999    -3.926944
 H     2.583345    -0.592298    -2.881413
 C     2.088994     2.053830     2.019606
 H     2.617866     2.976438     2.306591
 H     1.035328     2.312537     1.805021
 C     2.178221     1.015921     3.117775
 H     1.611252     1.392906     3.987069
 H     1.649523     0.105099     2.787521
 C     3.599685     0.669902     3.536725
 H     4.092563     1.579072     3.923817
 H     4.175798     0.378583     2.642769
 C     3.663934    -0.435848     4.577179
 H     3.113892    -0.159116     5.491039
 H     3.216415    -1.368084     4.195970
 H     4.700839    -0.661254     4.868693
 C     3.200377    -1.370813     0.180018
 H     3.668362    -1.673615    -0.773871
 H     3.891744    -0.686367     0.696831
 C     2.917438    -2.590134     1.029110
 H     3.882520    -3.064185     1.280827
 H     2.477329    -2.259467     1.986486
 C     1.994338    -3.591321     0.351313
 H     2.462164    -3.924280    -0.592411
 H     0.214938    -1.171722     1.629162
 C     1.670674    -4.797992     1.214707
 H     2.579637    -5.357655     1.488904
 H     1.174395    -4.496411     2.150881
 H     0.995769    -5.494189     0.693675
 H     1.067930    -3.072074     0.059672
 C    -1.325315    -0.194531     2.775809
 H    -0.945792    -0.516849     3.758193
 H    -0.954796     0.822496     2.574785
 H    -2.423471    -0.139730     2.835550
 C    -1.367223    -2.589344     1.944611
 H    -1.101332    -3.266618     1.121821
 H    -0.906950    -2.976093     2.868444
 H    -2.457096    -2.629802     2.089255
 C    -3.835785    -1.442824    -0.102380
 H    -4.313452    -1.385068    -1.097156
 H    -3.290032    -2.398325    -0.061513
 C    -4.892801    -1.364555     0.979051
 H    -5.565351    -2.233830     0.867321
 H    -4.407558    -1.475732     1.965156
 C    -5.695685    -0.071488     0.949048
 H    -6.212069     0.008438    -0.024002
 H    -4.995424     0.778550     0.985079
 C    -6.705301     0.031651     2.079783
 H    -7.432432    -0.796363     2.050127
 H    -6.208014    -0.004383     3.062789
 H    -7.272201     0.973549     2.030912
 C    -0.893279    -1.615996    -2.289745
 H    -1.895382    -1.763150    -2.733790
 H    -0.574155    -0.584499    -2.524751
 C     0.084889    -2.628512    -2.838989
 H     0.192268    -2.447782    -3.923113
 H     1.071703    -2.431850    -2.387332
 C    -0.320248    -4.074457    -2.589826
 H    -1.309997    -4.255515    -3.045737
 H    -0.457139    -4.221809    -1.505934
 C     0.685059    -5.079485    -3.126894
 H     0.819101    -4.972089    -4.215507
 H     1.673756    -4.941574    -2.660323
 H     0.368824    -6.115382    -2.931547
