  48
scf done:    -1375.801117
 C    -1.345829    -2.384588    -0.244908
 H    -0.946741    -3.343369     0.123806
 H    -2.290191    -2.250733     0.309601
 C    -1.625091    -2.530706    -1.738475
 H    -0.698733    -2.710790    -2.307085
 H    -2.308548    -3.372478    -1.959121
 H    -2.084358    -1.627561    -2.178329
Ir     0.029412    -0.784963     0.123395
 C    -1.864780     1.503220    -1.962168
 C    -3.429559     0.106964     0.004679
 C    -1.662916     2.234612     0.807514
 C     2.010639     1.766461     1.741347
 C     3.396925     0.041680    -0.029528
 C     1.716797     2.120396    -1.110183
 P     1.729504     0.805610     0.197364
 P    -1.726228     0.753041    -0.290655
 C     1.115800    -2.037777     0.938190
 O     1.737568    -2.800576     1.543319
 H    -0.918217     1.995526    -2.221140
 H    -2.040165     0.702337    -2.694777
 H    -2.680473     2.238711    -2.023900
 H    -3.394706    -0.378615     0.992558
 C    -4.575971     1.101414    -0.076882
 H    -4.633079     1.593394    -1.059794
 H    -4.498371     1.889042     0.687881
 H    -3.565567    -0.712804    -0.717424
 H    -5.537280     0.589406     0.083336
 H    -2.477135     2.925809     0.533821
 C    -1.712264     1.865651     2.282097
 H    -0.949478     1.105641     2.514214
 H    -2.690589     1.444710     2.560328
 H    -0.721384     2.754150     0.569170
 H    -1.539447     2.746648     2.919124
 H     2.114041     1.049823     2.568946
 H     2.913978     2.393601     1.694795
 H     1.138377     2.399584     1.955503
 H     3.519786    -0.650662     0.819549
 C     3.536548    -0.706152    -1.345680
 H     3.486478    -0.024894    -2.209877
 H     2.728489    -1.445611    -1.459201
 H     4.174127     0.816252     0.079842
 H     4.499308    -1.236820    -1.398650
 H     0.822181     2.733880    -0.914786
 C     2.946360     3.005418    -1.237429
 H     3.839557     2.427316    -1.516987
 H     3.172075     3.535986    -0.299877
 H     1.514661     1.590371    -2.055534
 H     2.797052     3.769613    -2.016051
