  88
scf done:    -2299.324827
 C    -0.642573    -2.903483    -1.964991
 H    -0.469543    -3.985894    -1.838785
 H    -1.729883    -2.784923    -1.813016
 C    -0.310339    -2.505167    -3.400360
 H     0.753729    -2.669631    -3.633984
 H    -0.898552    -3.078699    -4.141207
 H    -0.510265    -1.437666    -3.588769
Ir     0.553087    -1.789857    -0.563790
 C    -2.381848    -0.018788    -1.406047
 C    -2.618877    -2.052419     0.698834
 C    -1.590115     0.594190     1.324051
 C     2.212696    -0.770062     2.453144
 C     3.783597    -0.724204     0.012790
 C     1.918234     1.363129     0.646690
 P     2.047162    -0.482349     0.648816
 P    -1.484238    -0.743291     0.013475
 C     1.833051    -3.095936    -0.850795
 O     2.560623    -3.985047    -0.964387
 H    -1.774556     0.808047    -1.800555
 H    -2.482124    -0.786715    -2.184880
 H    -3.365747     0.376308    -1.120724
 H    -2.717580    -2.799050    -0.102491
 H    -2.036723    -2.531411     1.500168
 C    -3.951153    -1.586379     1.195333
 C    -4.182444    -1.412095     2.566016
 H    -3.396395    -1.666094     3.282481
 C    -4.989176    -1.289897     0.303608
 H    -4.832991    -1.453371    -0.766229
 C    -5.409709    -0.935182     3.020586
 H    -5.581423    -0.810737     4.092435
 C    -6.221334    -0.793696     0.739154
 C    -7.288501    -0.424337    -0.249243
 H    -7.145937     0.610454    -0.603920
 H    -7.264203    -1.077805    -1.133278
 H    -8.291858    -0.483792     0.196065
 C    -6.419319    -0.619397     2.114551
 H    -7.379821    -0.243900     2.477910
 H    -2.061635     0.136098     2.205265
 H    -0.556988     0.831759     1.600974
 C    -2.331932     1.833617     0.918354
 C    -1.692942     2.842249     0.188723
 H    -0.635278     2.751500    -0.068768
 C    -3.693553     1.975075     1.211126
 H    -4.201501     1.190176     1.776595
 C    -2.409471     3.957392    -0.240137
 H    -1.899298     4.734303    -0.814926
 C    -4.425660     3.087815     0.787381
 C    -5.882359     3.221040     1.127842
 H    -6.290839     2.272763     1.504606
 H    -6.039381     3.985503     1.906655
 H    -6.473427     3.528883     0.251485
 C    -3.765113     4.079702     0.051605
 H    -4.320778     4.955851    -0.294721
 H     2.441669    -1.832374     2.618707
 H     2.993804    -0.144176     2.910599
 H     1.244328    -0.557770     2.929624
 H     4.002340    -1.793057     0.160693
 H     3.705894    -0.565920    -1.073786
 C     4.842512     0.142891     0.615743
 C     5.155757     1.386368     0.051261
 H     4.644305     1.710454    -0.859038
 C     5.516325    -0.250840     1.778042
 H     5.290684    -1.228246     2.215870
 C     6.104921     2.210095     0.650308
 H     6.339205     3.179824     0.204079
 C     6.475760     0.562047     2.390501
 C     7.208748     0.094796     3.614851
 H     6.596271    -0.593529     4.215179
 H     8.130491    -0.444329     3.338900
 H     7.504292     0.938842     4.254825
 C     6.756750     1.805594     1.813165
 H     7.499503     2.460052     2.277676
 H     1.071994     1.621899     1.304905
 H     2.811662     1.754788     1.159598
 C     1.746081     2.056467    -0.679542
 C     2.032125     3.427577    -0.760119
 H     2.420888     3.949019     0.118911
 C     1.265469     1.407324    -1.819621
 H     1.052842     0.326219    -1.769502
 C     1.818944     4.122628    -1.945268
 H     2.043705     5.190900    -1.997201
 C     1.046348     2.093098    -3.022355
 C     0.507407     1.363259    -4.218034
 H    -0.559254     1.119428    -4.082807
 H     0.597908     1.963815    -5.133871
 H     1.031841     0.409087    -4.373540
 C     1.324991     3.461126    -3.069848
 H     1.162235     4.013458    -3.999405
