  94
scf done:    -2078.080041
 C     1.346264    -2.865907     0.198583
 H     1.870567    -3.282110    -0.679781
 H     2.139469    -2.617979     0.920932
 C     0.462931    -3.949603     0.811439
 H    -0.278948    -4.332331     0.091868
 H     1.053372    -4.816961     1.162641
 H    -0.102275    -3.576382     1.682275
Ir     0.157053    -1.158918    -0.284421
 C     1.484451     1.208968     2.118401
 C     3.484855    -0.415760     0.858571
 C     2.213588     1.680691    -0.693400
 C    -1.810540     1.079255    -2.170552
 C    -3.231226    -0.795906    -0.387470
 C    -1.922594     1.679599     0.724054
 P    -1.705764     0.283388    -0.491930
 P     1.801757     0.321953     0.525171
 C    -0.546216    -2.170465    -1.660792
 O    -0.854738    -2.694680    -2.647151
 H     0.551562     1.771470     1.977332
 C     1.331690     0.234027     3.276997
 H     2.287415    -0.244416     3.539552
 H     0.624477    -0.571351     3.020339
 H     2.271698     1.953607     2.317872
 H     0.957349     0.743027     4.178412
 H     3.261408    -1.248091     1.549549
 C     4.497420     0.494775     1.555407
 H     4.083858     0.914080     2.484940
 H     4.739202     1.354793     0.904741
 C     5.782464    -0.266896     1.879224
 H     6.511841     0.412200     2.350545
 H     5.553043    -1.044390     2.630248
 C     6.386821    -0.927597     0.645951
 H     7.280492    -1.509842     0.923535
 H     6.732159    -0.143057    -0.052092
 C     5.367259    -1.810169    -0.064558
 H     5.100108    -2.665311     0.581855
 H     5.801131    -2.238772    -0.982400
 C     4.103516    -1.026836    -0.400215
 H     4.370593    -0.215363    -1.100059
 H     3.367375    -1.662238    -0.913225
 H     3.275329     1.923770    -0.501747
 C     1.413501     2.970141    -0.502144
 H     1.524119     3.356568     0.522390
 H     0.342046     2.752471    -0.644050
 C     1.831083     4.042370    -1.504525
 H     1.226881     4.951854    -1.352291
 H     2.879982     4.330355    -1.308888
 C     1.705223     3.547806    -2.940008
 H     2.043382     4.323635    -3.645916
 H     0.639198     3.364983    -3.168223
 C     2.487987     2.256716    -3.143080
 H     3.568094     2.467765    -3.036858
 H     2.347626     1.877503    -4.168206
 C     2.081101     1.185534    -2.137226
 H     1.035234     0.877414    -2.298484
 H     2.672620     0.273054    -2.291130
 H    -1.264034     0.374924    -2.817102
 C    -3.136521     1.435076    -2.826660
 H    -3.720090     2.166177    -2.250367
 H    -3.764459     0.545178    -2.978373
 H    -1.158935     1.966185    -2.101392
 H    -2.952645     1.871173    -3.821399
 H    -3.201298    -1.292462    -1.378016
 C    -4.601861    -0.128514    -0.240550
 H    -4.740661     0.682573    -0.966445
 H    -4.676435     0.331320     0.759640
 C    -5.722600    -1.155554    -0.392919
 H    -6.701711    -0.662406    -0.276761
 H    -5.698914    -1.560467    -1.421040
 C    -5.579937    -2.300188     0.603374
 H    -6.369187    -3.052175     0.440622
 H    -5.731437    -1.907578     1.625588
 C    -4.199449    -2.940899     0.516088
 H    -4.089338    -3.447500    -0.459794
 H    -4.087620    -3.722948     1.284450
 C    -3.089607    -1.906471     0.662101
 H    -3.133997    -1.465132     1.672305
 H    -2.097696    -2.377122     0.572748
 H    -0.916368     2.132447     0.715386
 C    -2.152073     1.147124     2.140326
 H    -1.420488     0.354552     2.366405
 H    -3.145924     0.673391     2.196865
 C    -2.083951     2.264976     3.175588
 H    -2.291015     1.861601     4.179973
 H    -1.056286     2.670227     3.211355
 C    -3.053895     3.391752     2.839160
 H    -2.968565     4.207116     3.575539
 H    -4.089367     3.012601     2.914391
 C    -2.817159     3.920744     1.429398
 H    -1.816440     4.388055     1.380717
 H    -3.541607     4.715634     1.188561
 C    -2.897596     2.808366     0.385535
 H    -3.928862     2.424242     0.342356
 H    -2.671689     3.221548    -0.609458
