 108
scf done:    -2161.441851
 C     1.932147    -2.377172    -1.547698
 H     2.804111    -1.974859    -2.096509
 H     2.331610    -2.710183    -0.571594
 C     1.399631    -3.605589    -2.277803
 H     1.100478    -3.370936    -3.312108
 H     2.147540    -4.418892    -2.332914
 H     0.508958    -4.020971    -1.777639
Ir     0.473427    -0.857035    -1.188988
 C     1.525578    -0.831388     2.266986
 C     3.612725    -0.319998     0.323709
 C     1.678313     1.719660     0.905732
 C    -1.438887     2.179220    -1.048552
 C    -2.918737    -0.270225    -1.414416
 C    -1.831609     0.302745     1.209474
 P    -1.402611     0.387029    -0.594455
 P     1.807658    -0.092921     0.596672
 C    -0.141367    -1.021504    -2.927171
 O    -0.458335    -0.976100    -4.039332
 H     2.390049    -0.630668     2.922209
 H     0.666551    -0.293030     2.702237
 C     1.217851    -2.321902     2.200812
 H     0.411436    -2.485042     1.462680
 H     2.088804    -2.867737     1.798655
 C     0.821426    -2.914957     3.544428
 H    -0.040753    -2.352859     3.948888
 H     1.640064    -2.766740     4.272427
 C     0.465782    -4.393174     3.472554
 H    -0.343931    -4.531421     2.734535
 H     1.329141    -4.953859     3.073151
 C     0.046176    -4.978748     4.810915
 H    -0.205620    -6.046705     4.726681
 H    -0.838485    -4.459355     5.213830
 H     0.850122    -4.884756     5.558787
 H     3.775853    -1.402057     0.199653
 H     4.150696    -0.011344     1.234217
 C     4.099013     0.425719    -0.913131
 H     3.364381     0.272602    -1.722507
 H     4.112988     1.513540    -0.714232
 C     5.482562     0.000297    -1.407252
 H     5.432136    -1.084899    -1.616255
 C     5.818803     0.712286    -2.711870
 H     5.054537     0.520670    -3.480690
 H     6.790767     0.383311    -3.111147
 H     5.873749     1.803625    -2.560441
 C     6.567557     0.230272    -0.361209
 H     7.556188    -0.072741    -0.739620
 H     6.380380    -0.338870     0.562029
 H     6.629135     1.298455    -0.090428
 H     0.634664     1.901962     1.209285
 H     1.788419     2.186586    -0.085397
 C     2.633613     2.330769     1.919384
 H     2.599616     1.754381     2.859590
 H     3.671938     2.251710     1.551409
 C     2.341582     3.799484     2.244617
 H     1.312441     3.848293     2.649548
 C     3.293035     4.300959     3.324622
 H     3.238415     3.678665     4.231575
 H     3.063279     5.338174     3.613320
 H     4.336342     4.278658     2.967944
 C     2.399503     4.691486     1.009181
 H     2.225086     5.745447     1.274906
 H     1.645080     4.413805     0.257626
 H     3.389968     4.629794     0.527236
 H    -0.474679     2.589908    -0.709466
 H    -1.371776     2.171055    -2.150734
 C    -2.580577     3.072298    -0.586141
 H    -3.551200     2.641576    -0.887254
 H    -2.595547     3.117162     0.516375
 C    -2.472226     4.490265    -1.132345
 H    -2.462756     4.455654    -2.236836
 H    -1.495241     4.917844    -0.840339
 C    -3.588642     5.412594    -0.663043
 H    -4.561725     4.978585    -0.954184
 H    -3.594139     5.440598     0.441297
 C    -3.474606     6.826206    -1.210187
 H    -4.294278     7.468135    -0.853635
 H    -3.503122     6.831319    -2.311659
 H    -2.526217     7.297172    -0.905106
 H    -2.781500    -0.064103    -2.489988
 H    -3.804420     0.296802    -1.087673
 C    -3.088397    -1.768559    -1.194647
 H    -2.110670    -2.253088    -1.364556
 H    -3.341657    -1.969424    -0.137069
 C    -4.137519    -2.432124    -2.087816
 H    -3.850775    -2.223022    -3.135668
 C    -4.114636    -3.943198    -1.890618
 H    -3.113785    -4.356846    -2.088935
 H    -4.828667    -4.448100    -2.559673
 H    -4.385744    -4.207398    -0.854407
 C    -5.536342    -1.870300    -1.859091
 H    -6.276558    -2.368943    -2.504023
 H    -5.589503    -0.791579    -2.070865
 H    -5.851937    -2.022541    -0.812524
 H    -1.197313     1.049562     1.717907
 H    -1.452987    -0.680122     1.530726
 C    -3.282958     0.472958     1.639312
 H    -3.693030     1.410300     1.233968
 H    -3.896180    -0.335722     1.205991
 C    -3.487548     0.472781     3.157881
 H    -2.865850     1.287566     3.576518
 C    -4.943409     0.777180     3.492049
 H    -5.264330     1.737324     3.058597
 H    -5.105442     0.826940     4.579860
 H    -5.608147    -0.006829     3.092437
 C    -3.044220    -0.834918     3.805149
 H    -3.225114    -0.821012     4.890925
 H    -1.972754    -1.034227     3.654293
 H    -3.603729    -1.687980     3.385373
