  70
scf done:    -1912.291527
 C     1.702540    -2.386920    -1.035372
 H     1.481091    -3.014479    -1.914897
 H     2.570113    -1.767260    -1.312040
 C     2.080698    -3.284549     0.138847
 H     1.244642    -3.930082     0.453689
 H     2.928487    -3.950712    -0.108295
 H     2.383121    -2.694342     1.017880
Ir     0.042842    -1.085057    -0.628444
 C     1.170872     0.774984     2.154434
 O     3.070037    -0.168641     0.438157
 O     1.706242     1.910406    -0.159082
 C    -2.761583     0.629006    -1.812767
 O    -2.980666    -0.291952     0.634102
 O    -1.410362     1.740025     0.349403
 P    -1.757759     0.268365    -0.316173
 P     1.534460     0.384385     0.413375
 C    -1.036180    -2.465625    -1.271499
 O    -1.697191    -3.341000    -1.620405
 H     0.219668     1.325895     2.108568
 C     1.061269    -0.467553     3.024044
 H     2.013818    -1.014742     3.075226
 H     0.312036    -1.163007     2.615907
 H     1.936620     1.479871     2.518192
 H     0.764281    -0.204921     4.050494
 C     4.192867     0.613224     0.857885
 H     3.867309     1.658366     1.002439
 C     5.215247     0.572637    -0.259469
 H     4.791818     0.990265    -1.183154
 H     5.515552    -0.466986    -0.459909
 H     6.110762     1.152860     0.008925
 C     4.729337     0.053989     2.160974
 H     3.986439     0.130804     2.967226
 H     4.992483    -1.007327     2.035913
 H     5.630472     0.602232     2.474335
 C     1.273999     2.296381    -1.469924
 H     0.189576     2.103763    -1.526597
 C     1.976010     1.501536    -2.552004
 H     1.760817     0.425422    -2.445874
 H     3.065065     1.655972    -2.510277
 H     1.619435     1.816641    -3.544105
 C     1.518996     3.785869    -1.564745
 H     1.017326     4.308131    -0.737561
 H     2.596495     4.004334    -1.505494
 H     1.134725     4.181332    -2.516491
 H    -2.692354    -0.311442    -2.383781
 C    -4.220510     1.031962    -1.657974
 H    -4.341530     2.026600    -1.206673
 H    -4.752934     0.310210    -1.023715
 H    -2.179921     1.363430    -2.395241
 H    -4.714441     1.057178    -2.641448
 C    -2.738712    -1.256902     1.664691
 H    -1.732975    -1.686117     1.489503
 C    -3.777757    -2.347679     1.521262
 H    -3.700873    -2.820685     0.531737
 H    -4.791862    -1.932758     1.632065
 H    -3.633386    -3.123903     2.287460
 C    -2.763429    -0.568600     3.013922
 H    -1.969646     0.189477     3.075810
 H    -3.732917    -0.072814     3.178584
 H    -2.602196    -1.295631     3.823877
 C    -2.366957     2.736706     0.718049
 H    -3.364333     2.267431     0.768693
 C    -2.362297     3.848011    -0.314928
 H    -2.604325     3.468586    -1.317294
 H    -1.368523     4.318438    -0.359350
 H    -3.100259     4.622272    -0.056183
 C    -1.995463     3.241660     2.098092
 H    -2.030166     2.427445     2.834931
 H    -0.976626     3.658712     2.086927
 H    -2.690365     4.030165     2.423675
