 102
scf done:    -2979.158136
 C    -0.864670    -3.192389    -1.492101
 H    -0.363545    -4.050416    -1.002729
 H    -1.896970    -3.215117    -1.101505
 C    -0.879724    -3.442265    -2.994847
 H     0.141605    -3.541992    -3.395951
 H    -1.428867    -4.364228    -3.266953
 H    -1.350205    -2.615334    -3.550537
Ir     0.172940    -1.491173    -0.726980
 C    -2.819803    -0.472266    -2.267812
 C    -3.148167    -0.847954     0.569231
 C    -1.798929     1.510661    -0.477977
 C     0.669024    -0.005557     2.349867
 C     3.122534    -0.580414     1.011717
 C     1.600197     1.719454     0.058162
 P     1.389020    -0.019275     0.649848
 P    -1.872471    -0.328124    -0.658790
 C     1.657673    -2.033815    -1.647498
 O     2.548702    -2.290723    -2.352211
 H    -2.032328    -0.605597    -3.020818
 C    -3.850609    -1.583823    -2.368932
 H    -4.688897    -1.437508    -1.674733
 H    -3.418730    -2.572813    -2.172112
 H    -3.294517     0.501345    -2.451169
 H    -4.265018    -1.602227    -3.389832
 C    -4.438690    -0.289868     0.597414
 O    -4.666561     0.698909    -0.289795
 C    -5.913229     1.328970    -0.327619
 H    -5.847222     2.100252    -1.105351
 H    -6.723128     0.624492    -0.586434
 H    -6.157134     1.813729     0.634091
 C    -2.835514    -1.837616     1.517455
 O    -1.574203    -2.300094     1.517237
 C    -1.196913    -3.334227     2.380554
 H    -0.125357    -3.489988     2.208523
 H    -1.746567    -4.266041     2.162881
 H    -1.351245    -3.060153     3.438764
 C    -3.802617    -2.296209     2.426403
 H    -3.563873    -3.078193     3.145657
 C    -5.407022    -0.730156     1.505710
 H    -6.408109    -0.300745     1.514356
 C    -5.073820    -1.738437     2.405939
 H    -5.826853    -2.095861     3.112664
 C    -1.359425     2.258919    -1.587994
 O    -0.867538     1.541101    -2.613043
 C    -0.463974     2.180677    -3.788200
 H    -0.110981     1.389710    -4.462385
 H    -1.300286     2.718072    -4.269612
 H     0.361521     2.887336    -3.598687
 C    -2.201002     2.219588     0.665822
 O    -2.451221     1.490503     1.771095
 C    -3.089952     2.069903     2.868568
 H    -3.288072     1.254445     3.576249
 H    -4.049812     2.535175     2.583292
 H    -2.458797     2.829458     3.362465
 C    -2.324443     3.615099     0.644918
 H    -2.689602     4.151791     1.520024
 C    -1.454906     3.654436    -1.611926
 H    -1.120590     4.220764    -2.479599
 C    -1.961726     4.315070    -0.499864
 H    -2.050385     5.404103    -0.515690
 H     0.360123    -1.053820     2.471286
 C     1.577271     0.415682     3.491814
 H     2.008535     1.410942     3.322647
 H     2.409820    -0.292740     3.616252
 H    -0.255147     0.585350     2.296163
 H     1.016913     0.441290     4.441016
 C     4.246433     0.268481     1.100533
 O     4.011488     1.592628     1.148385
 C     5.049604     2.505140     0.946959
 H     4.577981     3.494351     0.877519
 H     5.770115     2.505986     1.784379
 H     5.593904     2.302949     0.008144
 C     3.350452    -1.962397     1.164621
 O     2.262145    -2.750777     1.273352
 C     2.345703    -4.089241     0.856249
 H     1.314464    -4.435327     0.708204
 H     2.840183    -4.722800     1.613458
 H     2.880483    -4.175162    -0.102905
 C     4.645989    -2.490383     1.229441
 H     4.799097    -3.565522     1.317746
 C     5.545717    -0.250738     1.160890
 H     6.406302     0.416445     1.195859
 C     5.732536    -1.627394     1.206317
 H     6.746146    -2.032528     1.254926
 C     2.242692     1.862891    -1.189332
 O     2.711974     0.728400    -1.729690
 C     3.311201     0.740131    -2.993881
 H     3.532786    -0.306444    -3.231490
 H     2.630096     1.147158    -3.760923
 H     4.245882     1.328576    -2.994361
 C     1.191997     2.893691     0.711953
 O     0.613279     2.762598     1.925108
 C     0.431777     3.889032     2.729189
 H     0.071698     3.522629     3.700174
 H    -0.317978     4.580369     2.308616
 H     1.378270     4.436421     2.884050
 C     1.399449     4.155677     0.137012
 H     1.061411     5.055708     0.647675
 C     2.437089     3.117137    -1.780106
 H     2.945399     3.206079    -2.739544
 C     2.011835     4.255560    -1.104111
 H     2.164092     5.240240    -1.552918
