  86
scf done:    -2521.398949
 C    -0.864975    -3.252739     0.089861
 H    -1.712290    -3.376378     0.788072
 H    -1.333396    -3.124880    -0.902874
 C    -0.017209    -4.518269     0.077986
 H     0.372007    -4.764232     1.079551
 H    -0.589533    -5.397335    -0.273339
 H     0.856626    -4.419555    -0.587598
Ir     0.221260    -1.476849     0.522714
 C    -1.016126     0.486234    -2.262835
 C    -3.017837    -1.102492    -0.899789
 C    -1.960187     1.186102     0.387215
 C     1.916335     0.980868     2.401196
 C     3.453667    -0.247717     0.248199
 C     1.570986     1.790268    -0.351735
 P     1.757736     0.293220     0.688871
 P    -1.424170    -0.243547    -0.619719
 C     0.957114    -2.298574     2.007690
 O     1.289547    -2.704463     3.039638
 H    -0.444838     1.400745    -2.047318
 C    -0.183453    -0.463080    -3.112246
 H    -0.725305    -1.390024    -3.354724
 H     0.729512    -0.759176    -2.572306
 H    -1.938588     0.796643    -2.778781
 H     0.114492     0.015397    -4.057658
 C    -3.534327    -1.396123    -2.168165
 H    -2.999598    -1.091819    -3.070052
 C    -3.738514    -1.528416     0.219179
 H    -3.348853    -1.324323     1.220086
 C    -4.731536    -2.084332    -2.311321
 H    -5.137091    -2.318304    -3.297364
 C    -4.943022    -2.213657     0.092242
 H    -5.474515    -2.525975     0.991290
 C    -5.448175    -2.499201    -1.182458
 O    -6.599439    -3.159881    -1.413921
 C    -7.345266    -3.618959    -0.321900
 H    -7.685590    -2.788903     0.322403
 H    -8.224542    -4.130382    -0.733783
 H    -6.773164    -4.334261     0.294966
 C    -1.747613     1.153690     1.773274
 H    -1.256354     0.270691     2.198046
 C    -2.575918     2.308931    -0.165979
 H    -2.766325     2.359960    -1.240349
 C    -2.118238     2.221562     2.576654
 H    -1.954760     2.207387     3.656049
 C    -2.946607     3.394240     0.627262
 H    -3.417588     4.259635     0.160198
 C    -2.714296     3.357155     2.008244
 O    -3.030873     4.352724     2.857833
 C    -3.634075     5.509696     2.351542
 H    -4.604572     5.291710     1.871950
 H    -3.802964     6.176906     3.206135
 H    -2.985781     6.025110     1.620347
 H     2.055201     0.090182     3.035013
 C     2.978549     2.027241     2.685413
 H     2.887820     2.895816     2.014924
 H     3.991232     1.614880     2.572515
 H     0.909267     1.357781     2.644060
 H     2.885617     2.394637     3.719538
 C     4.523253     0.653905     0.096721
 H     4.353013     1.726570     0.209586
 C     3.707115    -1.605542     0.041477
 H     2.876379    -2.312681     0.127556
 C     5.794509     0.207817    -0.223135
 H     6.628302     0.902171    -0.343056
 C     4.982288    -2.070082    -0.280726
 H     5.134745    -3.138657    -0.433178
 C     6.038100    -1.162370    -0.408904
 O     7.303315    -1.503576    -0.715240
 C     7.608259    -2.855927    -0.915974
 H     7.042111    -3.283078    -1.762322
 H     8.680276    -2.905985    -1.144802
 H     7.406605    -3.460035    -0.014054
 C     2.104904     1.829409    -1.651655
 H     2.719404     1.000013    -2.009351
 C     0.792762     2.872873     0.066795
 H     0.345215     2.879588     1.062675
 C     1.861217     2.900205    -2.497133
 H     2.272584     2.930563    -3.507811
 C     0.540067     3.957764    -0.772754
 H    -0.081501     4.773673    -0.404346
 C     1.069403     3.975264    -2.066945
 O     0.875770     4.969745    -2.955621
 C     0.080277     6.058683    -2.582439
 H     0.505775     6.603503    -1.721059
 H     0.044436     6.734390    -3.446358
 H    -0.949144     5.747321    -2.329428
