  68
scf done:    -4123.708965
 C     3.915237    -1.245341    -1.414393
 H     4.228027    -1.609397    -2.407982
 H     4.287084    -0.206472    -1.359785
 C     4.596252    -2.056932    -0.316557
 H     4.345948    -3.127989    -0.380397
 H     5.697067    -1.975439    -0.371937
 H     4.299556    -1.719324     0.688925
Ir     1.772034    -1.374398    -1.240942
 C     2.438360     1.746612    -2.727190
 O     0.333547     1.577678    -1.036149
 O     2.776371     1.642406    -0.127320
 C    -1.595358    -0.843379    -2.100980
 O    -0.997241    -3.018548    -0.581152
 O    -0.934069    -0.751808     0.586646
 P    -0.445289    -1.472651    -0.842248
 P     1.825209     0.889311    -1.263680
 C     1.890750    -3.157167    -1.856744
 O     1.955290    -4.189439    -2.350608
 H     3.455379     1.386423    -2.932406
 H     1.788520     1.483318    -3.572928
 H     2.445713     2.835428    -2.579852
 C    -0.053068     2.890991    -1.001001
 C    -1.360867     3.166359    -1.405216
 H    -1.995491     2.350475    -1.754438
 C     0.756706     3.914304    -0.505788
 H     1.767979     3.694217    -0.163764
 C    -1.866940     4.456162    -1.311083
 H    -2.897452     4.670213    -1.597527
 C     0.253176     5.211299    -0.423404
 H     0.875763     6.018738    -0.034797
 C    -1.054758     5.478768    -0.820608
Cl    -1.681042     7.087501    -0.694037
 C     3.117941     1.030628     1.053466
 C     4.382594     1.309041     1.567646
 H     5.040526     1.983696     1.017453
 C     2.256102     0.163363     1.726117
 H     1.263985    -0.064527     1.330273
 C     4.795387     0.716899     2.756159
 H     5.785528     0.922612     3.165333
 C     2.673169    -0.437984     2.911530
 H     2.011116    -1.125318     3.439773
 C     3.939353    -0.161122     3.421549
Cl     4.455929    -0.910509     4.894844
 H    -1.303417    -1.344254    -3.035425
 H    -2.656600    -1.026988    -1.895967
 H    -1.409921     0.232483    -2.211701
 C    -2.270245    -3.287062    -0.158247
 C    -3.257000    -3.619092    -1.087212
 H    -2.996852    -3.672200    -2.145945
 C    -2.573497    -3.244768     1.203824
 H    -1.786684    -2.986524     1.913247
 C    -4.553910    -3.890922    -0.658753
 H    -5.334179    -4.153437    -1.374798
 C    -3.867584    -3.514822     1.635783
 H    -4.118459    -3.478451     2.696912
 C    -4.854966    -3.829253     0.701523
Cl    -6.468959    -4.154911     1.236486
 C    -1.843657     0.241899     0.816344
 C    -3.192788     0.118123     0.477449
 H    -3.568148    -0.810846     0.047129
 C    -1.395176     1.396254     1.462171
 H    -0.346001     1.472822     1.748267
 C    -4.067628     1.177742     0.709125
 H    -5.119845     1.094571     0.432668
 C    -2.266663     2.449767     1.705757
 H    -1.910529     3.365574     2.179684
 C    -3.596946     2.347144     1.302064
Cl    -4.666462     3.690974     1.526834
