  54
scf done:    -1454.359624
 C     1.808623    -2.131485     0.242101
 H     2.408945    -2.261031    -0.677582
 H     2.493224    -1.662219     0.971837
 C     1.416791    -3.501744     0.785207
 H     0.838507    -4.085354     0.050916
 H     2.298444    -4.110373     1.060752
 H     0.788852    -3.418223     1.687565
Ir     0.166489    -0.806100    -0.103673
 C     2.038540     1.631136     1.825224
 C     3.354129     0.612855    -0.538702
 C     1.212314     2.517635    -0.795921
 C    -2.235875     1.483677    -1.541518
 C    -3.270394    -0.556361     0.252455
 C    -1.840627     1.683175     1.373599
 P    -1.773215     0.486810    -0.040456
 P     1.677713     0.986581     0.129891
 C    -0.742710    -2.178923    -0.948814
 O    -1.272348    -2.956630    -1.621956
 H     1.141556     2.195938     2.129149
 C     2.330874     0.532953     2.836916
 H     3.244542    -0.024831     2.581921
 H     1.505529    -0.194338     2.875801
 H     2.868930     2.354928     1.772361
 H     2.470990     0.954350     3.844059
 H     3.727975    -0.249038     0.033496
 C     3.333652     0.287033    -2.024450
 H     3.064615     1.164053    -2.633739
 H     2.598451    -0.504312    -2.235265
 H     4.021771     1.461520    -0.316275
 H     4.321460    -0.059947    -2.363510
 H     0.282419     2.879620    -0.330373
 C     2.241735     3.634344    -0.867895
 H     3.155987     3.317099    -1.390863
 H     2.534864     3.991326     0.131038
 H     0.924307     2.173153    -1.801899
 H     1.836722     4.498344    -1.417122
 H    -1.773711     0.938237    -2.379702
 C    -3.704001     1.753269    -1.840134
 H    -4.211646     2.289594    -1.025780
 H    -4.258148     0.820302    -2.018273
 H    -1.671079     2.427013    -1.459725
 H    -3.802237     2.366487    -2.749748
 H    -3.354958    -1.210055    -0.631512
 C    -3.165439    -1.392670     1.518645
 H    -3.164831    -0.764330     2.423170
 H    -2.234785    -1.981433     1.521432
 H    -4.173673     0.073544     0.268674
 H    -4.014491    -2.088125     1.600901
 H    -1.007065     2.385731     1.215122
 C    -3.130129     2.443699     1.637343
 H    -3.984738     1.766999     1.787591
 H    -3.381656     3.122311     0.809131
 H    -1.549545     1.084385     2.252855
 H    -3.038789     3.058984     2.546193
