 112
scf done:    -2613.568463
 C     1.930305    -3.969929    -0.914188
 H     1.600115    -4.847652    -1.492918
 H     2.857134    -3.649481    -1.416220
 C     2.227508    -4.422218     0.513012
 H     1.332251    -4.846820     0.994385
 H     3.015518    -5.198156     0.552067
 H     2.561063    -3.595161     1.163804
Ir     0.427264    -2.446052    -0.872442
 C     2.059185     0.152133     1.054243
 C     3.871647    -1.436322    -0.541482
 C     2.126247     0.459894    -1.895538
 C    -1.650798     0.311643    -1.696061
 C    -3.004026    -2.064406    -0.554955
 C    -1.488354    -0.224962     1.201800
 P    -1.419775    -1.054511    -0.480465
 P     2.111569    -0.807864    -0.513568
 C    -0.614949    -3.655555    -1.796409
 O    -1.197947    -4.371080    -2.491482
 H     2.926388     0.822840     1.130958
 H     1.181772     0.811999     0.980704
 C     1.953089    -0.745733     2.279203
 H     1.140638    -1.480573     2.133003
 H     2.869234    -1.353736     2.381550
 C     1.721303     0.038600     3.562700
 H     0.811531     0.656886     3.451007
 H     2.549608     0.756276     3.708112
 C     1.585237    -0.841934     4.796324
 H     0.758590    -1.556569     4.636972
 H     2.494532    -1.459740     4.903393
 C     1.344274    -0.055274     6.074276
 H     1.247369    -0.717716     6.947646
 H     0.421548     0.543069     6.005654
 H     2.172857     0.642636     6.276437
 H     3.933246    -2.189336     0.257925
 H     3.965482    -1.983899    -1.489801
 C     4.943460    -0.403360    -0.412530
 C     5.566029     0.130780    -1.547427
 H     5.313192    -0.259063    -2.536994
 C     5.327645     0.085702     0.844870
 H     4.881090    -0.349648     1.743212
 C     6.510100     1.148171    -1.424068
 H     6.986390     1.557002    -2.318275
 C     6.263199     1.113219     0.987948
 C     6.612686     1.654765     2.343540
 H     6.143494     2.639878     2.503510
 H     6.266164     0.988721     3.146185
 H     7.698653     1.791573     2.456037
 C     6.848401     1.645436    -0.169069
 H     7.587011     2.446994    -0.081048
 H     3.042816     0.253546    -2.469566
 H     1.283096     0.184036    -2.542733
 C     2.062828     1.922118    -1.546679
 C     1.004627     2.712019    -2.011966
 H     0.238981     2.268761    -2.650782
 C     3.062473     2.543291    -0.787418
 H     3.923147     1.960571    -0.455147
 C     0.929867     4.064980    -1.687034
 H     0.095967     4.664278    -2.061550
 C     3.001363     3.896534    -0.444661
 C     4.074783     4.504607     0.411354
 H     5.052710     4.045127     0.205104
 H     4.157514     5.589138     0.251020
 H     3.859002     4.345986     1.481671
 C     1.913674     4.653128    -0.897229
 H     1.848805     5.714433    -0.641978
 H    -0.869434     1.031505    -1.408834
 H    -1.319658    -0.114276    -2.657844
 C    -2.985650     1.028413    -1.843060
 H    -3.684773     0.389382    -2.408256
 H    -3.442954     1.192263    -0.856957
 C    -2.858511     2.374834    -2.541829
 H    -2.444774     2.238314    -3.558431
 H    -2.125685     2.988697    -1.989520
 C    -4.175033     3.134389    -2.618381
 H    -4.915041     2.531570    -3.174905
 H    -4.577401     3.239807    -1.594991
 C    -4.042146     4.506421    -3.258255
 H    -5.006875     5.034775    -3.298417
 H    -3.659997     4.433154    -4.289291
 H    -3.339841     5.139675    -2.691933
 H    -3.266593    -2.108940    -1.623691
 H    -2.675095    -3.075241    -0.277069
 C    -4.183092    -1.685968     0.289453
 C    -4.273010    -2.159740     1.606993
 H    -3.493355    -2.820693     1.996022
 C    -5.221882    -0.884768    -0.193034
 H    -5.184558    -0.530872    -1.224801
 C    -5.349815    -1.807013     2.415513
 H    -5.404897    -2.180944     3.440736
 C    -6.309622    -0.514631     0.604047
 C    -7.400640     0.348924     0.040443
 H    -7.999667     0.813679     0.836273
 H    -6.988716     1.150230    -0.591605
 H    -8.086713    -0.241638    -0.589021
 C    -6.358156    -0.980507     1.922267
 H    -7.198357    -0.701321     2.563925
 H    -2.032330    -0.917034     1.859863
 H    -0.450077    -0.220086     1.549968
 C    -2.070380     1.155750     1.284913
 C    -1.319980     2.272550     0.896830
 H    -0.286749     2.159845     0.559812
 C    -3.384181     1.358753     1.726755
 H    -3.974923     0.498635     2.048272
 C    -1.886584     3.545168     0.913428
 H    -1.285962     4.402412     0.599372
 C    -3.969503     2.627188     1.744996
 C    -5.393761     2.809387     2.184015
 H    -5.784151     1.899227     2.659430
 H    -5.492956     3.643868     2.895023
 H    -6.044168     3.038119     1.323533
 C    -3.204703     3.722836     1.322796
 H    -3.644816     4.724101     1.327644
