  78
scf done:    -4130.442539
 C     1.010917    -3.346683    -0.738685
 H     1.510021    -3.594978    -1.690821
 H     1.822720    -3.308538     0.005708
 C     0.030806    -4.456291    -0.372106
 H    -0.741117    -4.597442    -1.146608
 H     0.538377    -5.429738    -0.240570
 H    -0.498465    -4.246912     0.573501
Ir    -0.056263    -1.501723    -0.839922
 O     1.264688    -0.240085     2.126511
 C     3.194268    -1.114485     0.453590
 C     1.818492     1.267660    -0.000319
 O    -2.163521     0.611040    -2.217959
 C    -3.143711    -0.508794     0.140980
 C    -1.436829     1.754831     0.132751
 P    -1.659103     0.151891    -0.717845
 P     1.487888    -0.455045     0.500450
 C    -0.677312    -2.044751    -2.522235
 O    -0.934908    -2.283315    -3.617159
 C     0.339760    -1.080490     2.825319
 H    -0.586572    -1.140835     2.219659
 C     0.048159    -0.398455     4.143891
 H    -0.314113     0.626115     3.981134
 H     0.961652    -0.343002     4.755566
 H    -0.712867    -0.957457     4.707610
 C     0.893361    -2.481591     2.993022
 H     1.109424    -2.939224     2.016417
 H     1.821543    -2.467737     3.584453
 H     0.162083    -3.121251     3.509270
 C     3.997935    -1.124837     1.596014
 H     3.587970    -0.771511     2.544066
 C     3.722724    -1.558334    -0.763056
 H     3.088284    -1.569088    -1.653600
 C     5.312740    -1.578752     1.530706
 H     5.946162    -1.594541     2.419100
 C     5.036415    -2.005612    -0.842201
 H     5.453557    -2.357523    -1.786877
 C     5.823990    -2.014793     0.309669
Cl     7.457864    -2.580006     0.221184
 C     1.850645     1.571537    -1.365533
 H     1.609586     0.791191    -2.093885
 C     2.085785     2.266588     0.937909
 H     2.045649     2.029665     2.002515
 C     2.146931     2.861384    -1.792970
 H     2.164249     3.111105    -2.854989
 C     2.369910     3.563865     0.520626
 H     2.541570     4.360808     1.245711
 C     2.395094     3.851074    -0.842535
Cl     2.684535     5.478500    -1.363344
 C    -3.417525     1.229460    -2.526548
 H    -3.776698     1.785179    -1.640557
 C    -4.424382     0.159573    -2.905923
 H    -4.598274    -0.539293    -2.076670
 H    -4.049334    -0.413747    -3.767250
 H    -5.388160     0.614544    -3.179454
 C    -3.168506     2.208839    -3.655564
 H    -2.468061     2.999721    -3.353000
 H    -2.741164     1.681186    -4.521405
 H    -4.110006     2.685085    -3.966432
 C    -3.275532    -1.901122     0.233557
 H    -2.482858    -2.535893    -0.177961
 C    -4.154002     0.299157     0.681001
 H    -4.065653     1.387411     0.643606
 C    -4.388288    -2.479090     0.836229
 H    -4.487878    -3.563218     0.907806
 C    -5.274347    -0.264196     1.282722
 H    -6.062463     0.363934     1.700953
 C    -5.385449    -1.653534     1.354664
Cl    -6.774181    -2.358057     2.105115
 C    -1.092255     2.894648    -0.601021
 H    -1.036794     2.835840    -1.688969
 C    -1.468841     1.834679     1.529726
 H    -1.737945     0.957222     2.121706
 C    -0.789575     4.091811     0.038886
 H    -0.494878     4.973846    -0.531699
 C    -1.164949     3.023973     2.183464
 H    -1.183140     3.087035     3.272788
 C    -0.821043     4.145567     1.430822
Cl    -0.381652     5.612730     2.237152
