 102
scf done:    -2606.833299
 C     0.866130    -0.867265    -3.220670
 H     0.937725    -0.275963    -4.149156
 H     1.913429    -0.986568    -2.899169
 C     0.285319    -2.240990    -3.543576
 H    -0.726328    -2.160896    -3.972001
 H     0.903891    -2.801997    -4.269346
 H     0.185926    -2.877349    -2.646749
Ir    -0.337908     0.176442    -1.778256
 O     1.177844     0.364781     1.200717
 C     1.922887    -2.026446    -0.134458
 C     3.015136     0.588166    -0.906093
 O    -1.399616     2.708909     0.031120
 C    -3.568724     1.191325    -0.735937
 C    -1.852948     0.466933     1.474635
 P    -1.760372     1.116199    -0.247587
 P     1.446649    -0.223658    -0.308792
 C    -1.366665     0.754543    -3.212501
 O    -1.934263     1.175724    -4.123191
 C     1.903461     0.147712     2.417737
 H     2.911881    -0.220986     2.173258
 C     1.160965    -0.872345     3.263740
 H     0.944686    -1.797012     2.711400
 H     0.194387    -0.466815     3.596104
 H     1.748392    -1.127957     4.158671
 C     2.026979     1.478709     3.127787
 H     2.559401     2.210170     2.508678
 H     1.028600     1.879329     3.361065
 H     2.576576     1.354078     4.072581
 H     1.204297    -2.430239     0.595304
 H     1.630394    -2.445328    -1.108184
 C     3.336163    -2.403572     0.213905
 C     3.709966    -2.542886     1.557977
 H     2.948086    -2.437667     2.330370
 C     4.310803    -2.644730    -0.782409
 C     3.982634    -2.651210    -2.247390
 H     3.769011    -1.644469    -2.639403
 H     3.094740    -3.263394    -2.467003
 H     4.821621    -3.056300    -2.828586
 C     5.017379    -2.829650     1.935063
 H     5.270332    -2.926760     2.993383
 C     5.625121    -2.925088    -0.385067
 H     6.377003    -3.102191    -1.158875
 C     5.990877    -3.001305     0.954631
 H     7.025117    -3.221088     1.229258
 H     3.769224    -0.201505    -1.019854
 H     2.763638     0.965214    -1.907873
 C     3.576101     1.672915    -0.038176
 C     4.684446     1.391875     0.769259
 H     5.104257     0.380990     0.757224
 C     3.024866     2.971014    -0.039355
 C     1.833961     3.306222    -0.882807
 H     0.940116     2.733992    -0.585738
 H     2.007826     3.073163    -1.945402
 H     1.584643     4.373722    -0.808325
 C     5.255407     2.370680     1.578461
 H     6.120286     2.130036     2.200921
 C     3.617868     3.944031     0.773820
 H     3.199771     4.954500     0.772175
 C     4.718580     3.656021     1.578420
 H     5.157001     4.437740     2.203385
 C    -2.088321     3.588339     0.913327
 H    -2.999976     3.093810     1.300766
 C    -2.498819     4.811919     0.117566
 H    -3.155486     4.530246    -0.718433
 H    -1.606682     5.299229    -0.303991
 H    -3.029371     5.537638     0.752127
 C    -1.181068     3.922084     2.082673
 H    -0.928307     3.018558     2.654363
 H    -0.241742     4.363204     1.716326
 H    -1.664949     4.639074     2.762854
 H    -3.944787     2.171635    -0.407285
 H    -3.594960     1.189514    -1.834705
 C    -4.418917     0.106740    -0.142525
 C    -5.128254     0.371008     1.035010
 H    -5.106937     1.384314     1.448606
 C    -4.480053    -1.185163    -0.705503
 C    -3.787725    -1.510176    -1.994803
 H    -2.704557    -1.301711    -1.947968
 H    -4.183620    -0.904771    -2.827121
 H    -3.919800    -2.568556    -2.256935
 C    -5.852894    -0.620786     1.689340
 H    -6.393374    -0.388926     2.610192
 C    -5.205896    -2.172166    -0.031410
 H    -5.236686    -3.179655    -0.454407
 C    -5.876657    -1.907347     1.159545
 H    -6.425393    -2.704601     1.666047
 H    -0.890546     0.795632     1.898181
 H    -2.650398     1.012727     1.998736
 C    -2.009631    -1.015051     1.692386
 C    -1.602098    -1.953617     0.739021
 H    -1.214104    -1.597803    -0.224994
 C    -2.522550    -1.478466     2.923044
 C    -2.953588    -0.521115     3.994957
 H    -3.789559     0.110830     3.653709
 H    -2.137180     0.157856     4.291616
 H    -3.286485    -1.058508     4.893469
 C    -1.693140    -3.322548     0.975340
 H    -1.371913    -4.027014     0.203936
 C    -2.611851    -2.856534     3.145025
 H    -3.012403    -3.209898     4.099302
 C    -2.201917    -3.780065     2.187006
 H    -2.283698    -4.851000     2.387730
