  82
scf done:    -2593.194468
 C    -1.463206     1.586212    -2.308674
 H    -1.196424     1.520182    -3.376992
 H    -2.414035     1.038967    -2.217543
 C    -1.665869     3.050456    -1.929233
 H    -0.746226     3.640241    -2.074928
 H    -2.459088     3.532188    -2.532700
 H    -1.954910     3.169608    -0.872697
Ir     0.056062     0.630575    -1.123552
 O    -0.991504    -0.128595     1.910926
 C    -3.027817     1.050748     0.615985
 C    -2.263317    -1.747063     0.035874
 O     1.055740    -1.860855     0.742894
 C     3.142177    -0.971666    -0.702785
 C     2.249654     0.499924     1.630054
 P     1.631535    -0.416614     0.165597
 P    -1.611438    -0.080884     0.380824
 C     1.281754     1.246683    -2.378656
 O     2.028067     1.632031    -3.167637
 C    -1.620811    -0.745855     3.006766
 H    -2.610918    -0.308755     3.211778
 H    -1.742411    -1.828481     2.837501
 H    -0.964955    -0.592067     3.875620
 C    -2.894977     2.062105     1.567927
 H    -2.000105     2.076251     2.194666
 C    -4.167096     1.039889    -0.210929
 O    -4.250914     0.035027    -1.102536
 C    -5.271536     0.035096    -2.059095
 H    -6.270015    -0.048024    -1.594159
 H    -5.099987    -0.843418    -2.693440
 H    -5.238811     0.943742    -2.684526
 C    -3.868007     3.050405     1.715454
 H    -3.743065     3.835076     2.464165
 C    -5.139801     2.033693    -0.072945
 H    -6.019374     2.037649    -0.716989
 C    -4.985509     3.032487     0.888527
 H    -5.751476     3.806246     0.981136
 C    -1.540619    -2.512023    -0.882965
 H    -0.638272    -2.068371    -1.316836
 C    -3.447576    -2.278344     0.586216
 O    -4.110696    -1.502676     1.464066
 C    -5.398384    -1.860799     1.874942
 H    -6.071429    -2.008761     1.012641
 H    -5.773840    -1.026930     2.481770
 H    -5.396959    -2.778973     2.488451
 C    -1.965770    -3.786374    -1.254138
 H    -1.388271    -4.367774    -1.975239
 C    -3.881673    -3.552552     0.209343
 H    -4.798029    -3.970981     0.626300
 C    -3.136273    -4.298333    -0.704570
 H    -3.486734    -5.294304    -0.987633
 C     1.470688    -2.493012     1.925356
 H     2.495851    -2.888084     1.845587
 H     1.428028    -1.804036     2.785474
 H     0.771888    -3.323398     2.105238
 C     3.307348    -2.306300    -1.063632
 H     2.549901    -3.028669    -0.751464
 C     4.094436    -0.025468    -1.122389
 O     3.861627     1.241832    -0.730058
 C     4.643034     2.282658    -1.244890
 H     5.698934     2.193238    -0.934203
 H     4.229099     3.211840    -0.833981
 H     4.584454     2.318514    -2.345656
 C     4.408630    -2.713762    -1.818500
 H     4.525299    -3.763791    -2.095206
 C     5.194010    -0.424189    -1.885684
 H     5.930619     0.306404    -2.221149
 C     5.346020    -1.769690    -2.225403
 H     6.208037    -2.073898    -2.824309
 C     1.547529     1.655309     1.978411
 H     0.667911     1.909960     1.379668
 C     3.421022     0.179900     2.346483
 O     4.077172    -0.934473     1.971093
 C     5.353735    -1.199237     2.476543
 H     6.042524    -0.355072     2.300467
 H     5.723887    -2.079142     1.934931
 H     5.332865    -1.424254     3.557674
 C     1.966476     2.476014     3.023847
 H     1.401858     3.375773     3.276506
 C     3.852944     1.004711     3.391002
 H     4.758873     0.763550     3.947801
 C     3.120753     2.143335     3.725856
 H     3.469325     2.777858     4.544891
