  98
scf done:    -2154.698670
 C     0.498384    -3.047345     0.793980
 H     0.218085    -3.980496     0.279526
 H     1.601053    -3.033900     0.791062
 C     0.011495    -3.082337     2.238954
 H    -1.086175    -3.161617     2.300539
 H     0.429594    -3.943717     2.794083
 H     0.312057    -2.172207     2.782673
Ir    -0.416775    -1.319178    -0.085827
 O     2.153904    -0.558487     1.848402
 C     2.826239    -1.133821    -0.845917
 C     2.050343     1.472493     0.068810
 O    -1.501258     1.791031    -1.267951
 C    -3.525920    -0.036956    -0.940232
 C    -2.265179     1.212392     1.296722
 P    -1.853607     0.455058    -0.333209
 P     1.642345    -0.302085     0.298966
 C    -1.489734    -2.466904    -1.061290
 O    -2.037435    -3.179039    -1.789186
 C     3.469937    -0.380136     2.362985
 H     4.072071     0.214115     1.652137
 C     4.114549    -1.740777     2.544228
 H     4.185353    -2.274904     1.585624
 H     3.508914    -2.354537     3.227796
 H     5.128555    -1.643810     2.960994
 C     3.351791     0.398236     3.657777
 H     2.897963     1.383077     3.475954
 H     2.712861    -0.148188     4.368243
 H     4.339417     0.548251     4.118972
 H     2.280275    -1.139050    -1.805520
 H     2.832993    -2.185447    -0.523892
 C     4.234664    -0.588962    -1.042412
 H     4.190973     0.481825    -1.300630
 H     4.812411    -0.653608    -0.104478
 C     5.024997    -1.310674    -2.139302
 H     4.424868    -1.255552    -3.067229
 C     6.347558    -0.596267    -2.392448
 H     6.190758     0.459450    -2.664357
 H     6.912831    -1.073703    -3.207634
 H     6.983319    -0.617642    -1.491314
 C     5.254482    -2.782570    -1.814457
 H     5.838203    -3.276190    -2.606553
 H     4.311140    -3.338153    -1.707757
 H     5.817059    -2.890633    -0.871345
 H     3.112214     1.599790     0.342896
 H     1.465099     2.023201     0.818920
 C     1.795090     2.004098    -1.335618
 H     2.142689     1.274037    -2.086469
 H     0.708523     2.094216    -1.492525
 C     2.488124     3.339830    -1.622924
 H     3.580274     3.164587    -1.563559
 C     2.169713     3.802503    -3.039803
 H     2.444897     3.038112    -3.783192
 H     2.706404     4.729853    -3.293478
 H     1.090626     3.998227    -3.154480
 C     2.142445     4.416905    -0.599964
 H     2.631343     5.371163    -0.850476
 H     2.463432     4.140161     0.415608
 H     1.056218     4.596412    -0.567375
 C    -2.418109     2.847190    -1.541962
 H    -3.332198     2.713935    -0.934287
 C    -2.792203     2.793154    -3.010974
 H    -3.263711     1.831854    -3.260100
 H    -1.888485     2.897563    -3.630579
 H    -3.491100     3.602331    -3.271849
 C    -1.783172     4.166017    -1.147984
 H    -1.507716     4.165855    -0.083589
 H    -0.874360     4.346195    -1.740733
 H    -2.479575     4.999419    -1.324630
 H    -3.351138    -0.499932    -1.926193
 H    -4.147951     0.855180    -1.109543
 C    -4.233746    -1.019906    -0.010808
 H    -3.487457    -1.691709     0.448417
 H    -4.701551    -0.468459     0.824515
 C    -5.296215    -1.879663    -0.698285
 H    -4.784774    -2.435792    -1.505494
 C    -5.865286    -2.898990     0.280732
 H    -5.070426    -3.532407     0.703942
 H    -6.597679    -3.559698    -0.208428
 H    -6.377293    -2.397707     1.119527
 C    -6.403109    -1.039672    -1.324923
 H    -7.156627    -1.676560    -1.813676
 H    -6.015163    -0.346246    -2.086749
 H    -6.922212    -0.439737    -0.557773
 H    -2.724635     0.410977     1.898619
 H    -3.042996     1.979223     1.141335
 C    -1.051663     1.777035     2.018596
 H    -0.322431     0.961889     2.164193
 H    -0.554394     2.520440     1.369950
 C    -1.343952     2.427601     3.371881
 H    -1.897425     1.689592     3.982534
 C    -0.037524     2.744121     4.090744
 H     0.567718     1.836524     4.236283
 H    -0.217426     3.195093     5.078902
 H     0.566694     3.458236     3.505180
 C    -2.208952     3.676256     3.240289
 H    -2.411625     4.126317     4.224406
 H    -3.181265     3.462637     2.771194
 H    -1.700470     4.438817     2.625704
