  88
scf done:    -2299.305428
 C    -1.693961     0.498399    -2.433349
 H    -2.106274    -0.073166    -3.281381
 H    -2.566552     0.792520    -1.829687
 C    -0.981754     1.746065    -2.947160
 H    -0.120484     1.496951    -3.587396
 H    -1.658303     2.389853    -3.540985
 H    -0.590066     2.363672    -2.121083
Ir    -0.237134    -0.581378    -1.320694
 C    -1.238841    -1.453857     1.966460
 C    -0.981112     1.410808     1.490904
 C    -3.245709    -0.088911     0.476890
 C     3.002388    -2.191280    -1.202091
 C     2.595843     0.715115    -1.135673
 C     2.443755    -0.865316     1.285935
 P     1.915255    -0.859440    -0.476312
 P    -1.420225    -0.154079     0.646841
 C     0.081474    -1.610257    -2.827919
 O     0.170780    -2.374356    -3.692010
 H    -0.183664    -1.351924     2.261351
 C    -2.119434    -1.234569     3.187872
 H    -1.861408    -1.968274     3.969302
 H    -1.996485    -0.229871     3.618583
 H    -3.183420    -1.369703     2.942298
 C    -1.427628    -2.837916     1.359530
 H    -0.807130    -2.960747     0.458014
 H    -1.160097    -3.615429     2.093700
 H    -2.477430    -3.002886     1.069150
 C    -0.056710     1.449951     2.541011
 H     0.358686     0.531056     2.958926
 C    -1.449450     2.617886     0.951210
 H    -2.146321     2.592594     0.108101
 C     0.365604     2.678251     3.048218
 H     1.093386     2.700579     3.862957
 C    -1.043128     3.853627     1.458672
 C    -1.582260     5.133130     0.888910
 H    -1.964240     4.988521    -0.131643
 H    -2.414706     5.517157     1.501731
 H    -0.811054     5.917147     0.860354
 C    -0.127273     3.867362     2.520220
 H     0.210164     4.824742     2.927296
 C    -4.066083     0.695664     1.296022
 H    -3.625232     1.374457     2.029123
 C    -3.830037    -0.955256    -0.451368
 H    -3.171329    -1.539266    -1.103506
 C    -5.449999     0.606642     1.172477
 H    -6.092406     1.220992     1.808248
 C    -5.219309    -1.059159    -0.580748
 C    -5.815990    -1.980481    -1.604559
 H    -5.589840    -1.630623    -2.624721
 H    -5.403506    -2.997191    -1.515881
 H    -6.908564    -2.044523    -1.504428
 C    -6.020531    -0.264083     0.245086
 H    -7.108847    -0.324362     0.156073
 H     2.949233    -1.966655    -2.282026
 C     4.447806    -2.136238    -0.725980
 H     5.064500    -2.850652    -1.295292
 H     4.892858    -1.137207    -0.839928
 H     4.516703    -2.408657     0.338353
 C     2.391565    -3.573436    -0.996896
 H     1.336419    -3.602416    -1.304223
 H     2.943435    -4.318595    -1.591332
 H     2.455148    -3.886744     0.056491
 C     3.480410     0.770542    -2.218891
 H     3.890003    -0.141493    -2.654483
 C     2.071609     1.913564    -0.627222
 H     1.361561     1.883423     0.204477
 C     3.836478     2.000863    -2.765738
 H     4.528526     2.036388    -3.610630
 C     2.419604     3.153925    -1.170364
 C     1.808896     4.416409    -0.637786
 H     0.777746     4.532313    -1.010375
 H     1.749661     4.401862     0.459793
 H     2.378743     5.303222    -0.949417
 C     3.314050     3.181488    -2.246216
 H     3.597528     4.141807    -2.685515
 C     3.224146     0.142091     1.865231
 H     3.578640     0.977231     1.259157
 C     2.023838    -1.935552     2.085813
 H     1.414004    -2.727057     1.641999
 C     3.543832     0.080898     3.219739
 H     4.149924     0.872588     3.667405
 C     2.337765    -2.011652     3.446850
 C     1.823454    -3.150605     4.278601
 H     0.744915    -3.033646     4.478148
 H     1.952882    -4.114536     3.764065
 H     2.335728    -3.208391     5.249076
 C     3.100277    -0.980341     4.006560
 H     3.353084    -1.013932     5.069840
