 108
scf done:    -2685.389958
 C    -0.843169     1.519132    -3.027004
 H    -0.811621     1.077339    -4.038618
 H    -1.914941     1.606017    -2.781285
 C    -0.244941     2.921762    -3.059534
 H     0.799239     2.915697    -3.412021
 H    -0.809133     3.603619    -3.722887
 H    -0.239766     3.380009    -2.057858
Ir     0.213620     0.253165    -1.638214
 O    -2.306607     1.843037    -0.301878
 C    -3.212907    -0.539998    -1.353090
 C    -1.946924    -0.397383     1.279155
 O     0.566834    -2.149190     0.610285
 C     2.982002    -1.756217    -0.671444
 C     1.925501     0.014199     1.458657
 P     1.423530    -0.902675    -0.076854
 P    -1.812931     0.281321    -0.448094
 C     1.554047     0.209939    -2.927800
 O     2.333487     0.143339    -3.773422
 C    -3.642242     2.323952    -0.266905
 H    -4.075489     2.251168    -1.281549
 H    -4.259393     1.721622     0.419905
 C    -3.627386     3.766319     0.188229
 H    -4.675417     4.112615     0.225146
 H    -3.256193     3.801510     1.225993
 C    -2.797871     4.687051    -0.693519
 H    -3.176867     4.640348    -1.729945
 H    -1.768779     4.298533    -0.736799
 C    -2.790944     6.126504    -0.207549
 H    -3.808214     6.550340    -0.181786
 H    -2.379707     6.199867     0.812400
 H    -2.179279     6.769711    -0.858029
 H    -4.143729    -0.139481    -0.924957
 H    -3.131737    -0.163109    -2.384546
 C    -3.259108    -2.042278    -1.310335
 C    -4.155734    -2.659882    -0.428722
 H    -4.810045    -2.031361     0.179936
 C    -2.467971    -2.849589    -2.157098
 C    -1.568817    -2.256436    -3.192755
 H    -0.798940    -1.594752    -2.735660
 H    -2.131141    -1.623474    -3.898697
 H    -1.056997    -3.037704    -3.770398
 C    -4.258926    -4.044116    -0.333576
 H    -4.976232    -4.492959     0.357038
 C    -2.570150    -4.241031    -2.033285
 H    -1.951693    -4.866855    -2.682201
 C    -3.444665    -4.841667    -1.132191
 H    -3.501645    -5.930932    -1.068613
 H    -2.222910    -1.455574     1.158763
 H    -0.924484    -0.399520     1.672876
 C    -2.885583     0.321958     2.198352
 C    -4.166574    -0.190069     2.434517
 H    -4.444862    -1.141234     1.976350
 C    -2.496880     1.522132     2.832660
 C    -1.114117     2.082429     2.670927
 H    -0.838849     2.199311     1.613184
 H    -0.361188     1.427946     3.140685
 H    -1.028347     3.067762     3.148747
 C    -5.081803     0.478814     3.243246
 H    -6.076600     0.058381     3.407726
 C    -3.428433     2.180952     3.641962
 H    -3.132711     3.114299     4.129071
 C    -4.713157     1.680211     3.841730
 H    -5.418392     2.222504     4.475843
 C     1.071579    -3.052764     1.574177
 H     1.509458    -3.927682     1.056765
 H     1.875544    -2.591589     2.172241
 C    -0.056493    -3.494000     2.481835
 H     0.367775    -4.142769     3.268336
 H    -0.454857    -2.603788     2.999661
 C    -1.183825    -4.218403     1.760859
 H    -0.791637    -5.153881     1.324396
 H    -1.518057    -3.612826     0.902988
 C    -2.359920    -4.523889     2.672186
 H    -2.051063    -5.121226     3.545623
 H    -2.816862    -3.595866     3.054127
 H    -3.143504    -5.083709     2.142039
 H     2.699601    -2.819805    -0.706746
 H     3.104167    -1.441644    -1.715746
 C     4.268059    -1.581719     0.080595
 C     4.651492    -2.521397     1.045747
 H     3.995867    -3.372956     1.245905
 C     5.127410    -0.497609    -0.202646
 C     4.781662     0.521275    -1.246793
 H     3.806212     0.991828    -1.052179
 H     4.728792     0.071888    -2.251492
 H     5.530997     1.323249    -1.274912
 C     5.858338    -2.411008     1.732418
 H     6.135892    -3.162179     2.475453
 C     6.335782    -0.402304     0.496189
 H     7.001112     0.437004     0.277151
 C     6.707058    -1.342867     1.453947
 H     7.658543    -1.240266     1.980937
 H     0.976250     0.122641     2.009902
 H     2.565686    -0.641877     2.061785
 C     2.569503     1.364505     1.285371
 C     2.032773     2.297912     0.389526
 H     1.158997     2.011450    -0.214765
 C     3.698763     1.719872     2.053021
 C     4.266253     0.800594     3.095529
 H     4.558701    -0.172891     2.675344
 H     3.535982     0.607364     3.898637
 H     5.160304     1.239873     3.558417
 C     2.617299     3.547465     0.205296
 H     2.183344     4.245922    -0.514097
 C     4.277953     2.977545     1.849071
 H     5.160239     3.249325     2.435265
 C     3.755859     3.885696     0.931025
 H     4.234366     4.858307     0.792053
