  66
scf done:    -1984.119091
 C     1.776974    -2.242884    -0.779642
 H     1.708100    -2.871600    -1.681277
 H     2.697905    -1.650700    -0.904254
 C     1.888590    -3.122326     0.460864
 H     0.996485    -3.755125     0.599299
 H     2.759076    -3.802226     0.402522
 H     2.015629    -2.517946     1.372703
Ir     0.030830    -1.011005    -0.531311
 O     1.111202     1.889014     1.095801
 O     2.722394    -0.053896     1.190093
 O     2.355978     1.257233    -0.911306
 O    -3.189223    -0.045187    -1.015452
 O    -2.573101    -0.181780     1.395380
 O    -1.799480     1.742043    -0.080491
 P    -1.866480     0.125980    -0.061007
 P     1.528458     0.533460     0.271995
 C    -0.723070    -2.032347    -1.903881
 O    -1.090132    -2.576678    -2.848713
 C     0.419244     1.775021     2.316663
 H    -0.621541     1.458930     2.154605
 H     0.914761     1.067509     3.003154
 H     0.410539     2.769970     2.782406
 C     3.916291     0.695476     1.482730
 H     3.720359     1.758821     1.264168
 C     5.031887     0.191530     0.591358
 H     4.766759     0.338712    -0.464165
 H     5.203403    -0.881702     0.765412
 H     5.966567     0.734493     0.798083
 C     4.201646     0.526737     2.959353
 H     3.371265     0.915186     3.566628
 H     4.339785    -0.537999     3.201919
 H     5.116581     1.069572     3.239584
 C     1.764146     1.535252    -2.195054
 H     1.089029     0.690969    -2.430565
 C     2.901241     1.578912    -3.189103
 H     3.446528     0.624136    -3.192126
 H     3.607719     2.384473    -2.934667
 H     2.515282     1.762314    -4.202591
 C     0.957326     2.815021    -2.120745
 H     0.135076     2.711235    -1.398249
 H     1.596383     3.655792    -1.809578
 H     0.524442     3.047404    -3.105629
 C    -3.932600    -1.241035    -1.013869
 H    -3.297865    -2.120319    -1.213693
 H    -4.446886    -1.384580    -0.050383
 H    -4.678268    -1.163190    -1.816342
 C    -1.960865    -1.060360     2.347530
 H    -0.863769    -1.020639     2.200880
 C    -2.415784    -2.486482     2.111228
 H    -2.112982    -2.820702     1.107729
 H    -3.510199    -2.566442     2.203194
 H    -1.953958    -3.164008     2.844853
 C    -2.314247    -0.540652     3.724155
 H    -1.959825     0.491739     3.857001
 H    -3.405907    -0.547011     3.865703
 H    -1.858265    -1.168390     4.503811
 C    -2.956257     2.581757     0.090503
 H    -3.793500     1.954600     0.437728
 C    -3.304407     3.188169    -1.252410
 H    -3.516554     2.391567    -1.978199
 H    -2.465140     3.793492    -1.628269
 H    -4.190622     3.835257    -1.167911
 C    -2.620853     3.607701     1.151571
 H    -2.424440     3.119778     2.116702
 H    -1.725596     4.178680     0.861311
 H    -3.456630     4.310786     1.284590
