  62
scf done:    -1683.298524
 C    -0.744713    -2.700280    -1.181569
 H    -0.448989    -3.668890    -0.747223
 H    -1.844910    -2.672440    -1.103404
 C    -0.351005    -2.650615    -2.655155
 H     0.740531    -2.720092    -2.791105
 H    -0.801662    -3.481268    -3.230752
 H    -0.685283    -1.712891    -3.127000
Ir     0.226874    -1.052149    -0.202072
 O    -2.401020    -0.084432    -2.011459
 C    -3.084475    -0.701414     0.580787
 C    -1.929681     1.873375    -0.122826
 O     0.934831     1.803402     1.621943
 C     3.185664     0.448735     0.927400
 C     1.652533     2.057241    -0.905803
 P     1.456627     0.783907     0.396412
 P    -1.797327     0.067082    -0.480105
 C     1.431347    -2.251061     0.546870
 O     2.097978    -2.995426     1.124963
 C    -3.646281     0.407288    -2.430555
 H    -4.473943     0.070072    -1.782763
 H    -3.660745     1.510560    -2.474829
 H    -3.826514     0.021722    -3.444115
 H    -4.038292    -0.159067     0.476507
 H    -3.233178    -1.711443     0.165563
 C    -2.668465    -0.796825     2.044317
 H    -2.479267     0.213495     2.447712
 H    -1.700558    -1.325004     2.087573
 C    -3.703483    -1.504820     2.903126
 H    -4.671577    -0.978237     2.887386
 H    -3.878937    -2.531235     2.544171
 H    -3.376378    -1.570248     3.951872
 H    -1.122697     2.091705     0.596041
 H    -1.626897     2.366763    -1.063929
 C    -3.246101     2.453221     0.383903
 H    -3.511515     1.977937     1.342426
 H    -4.071068     2.215795    -0.307063
 C    -3.162480     3.960135     0.576863
 H    -2.363183     4.223944     1.287463
 H    -2.938876     4.472133    -0.372752
 H    -4.106912     4.371210     0.964395
 C     0.598203     1.221962     2.858555
 H     0.076207     0.258620     2.719940
 H     1.494378     1.048497     3.480183
 H    -0.063566     1.918891     3.394081
 H     3.617325     1.374111     1.343459
 H     3.111736    -0.274550     1.757162
 C     4.056414    -0.126576    -0.184781
 H     4.275922     0.663722    -0.923030
 H     3.486937    -0.898866    -0.730547
 C     5.354814    -0.724360     0.333338
 H     5.947936     0.019916     0.888647
 H     5.151790    -1.566445     1.013661
 H     5.978675    -1.103735    -0.490039
 H     2.088569     1.528134    -1.770583
 H     0.632307     2.335078    -1.214483
 C     2.457191     3.297096    -0.539301
 H     3.494765     3.008911    -0.300445
 H     2.040697     3.729461     0.384217
 C     2.464268     4.335417    -1.650683
 H     2.896565     3.928099    -2.578738
 H     1.442448     4.674559    -1.885548
 H     3.052510     5.222273    -1.369642
