  80
scf done:    -1918.996856
 C    -1.180710    -3.361766    -0.414251
 H    -0.668245    -4.267604    -0.053170
 H    -2.094305    -3.294807     0.199508
 C    -1.546624    -3.553202    -1.883818
 H    -0.651262    -3.720866    -2.503479
 H    -2.215717    -4.420470    -2.040969
 H    -2.057227    -2.672657    -2.312049
Ir     0.055913    -1.623345    -0.255468
 O    -1.958208     0.987780    -1.086517
 C    -3.504979    -1.040040    -0.080330
 C    -1.790608     0.517776     1.645303
 O     1.120500     1.455984     0.573714
 C     3.202024    -0.088043    -0.420689
 C     1.185019     1.038324    -2.151490
 P     1.390482     0.225075    -0.520796
 P    -1.837770    -0.272849    -0.012132
 C     1.448022    -2.709866     0.302280
 O     2.287169    -3.336110     0.791620
 C    -2.496454     2.271896    -0.831396
 H    -3.269776     2.470700    -1.593883
 H    -3.000965     2.310977     0.147941
 C    -1.407283     3.323461    -0.891719
 H    -0.602719     3.020101    -0.202409
 H    -0.963164     3.315337    -1.901835
 C    -1.897310     4.723441    -0.556870
 H    -2.341932     4.724133     0.454393
 H    -2.715429     5.004491    -1.243744
 C    -0.791744     5.764805    -0.627268
 H     0.021202     5.528295     0.078442
 H    -0.348426     5.807564    -1.635141
 H    -1.161753     6.771697    -0.382453
 H    -3.521199    -1.667407    -0.985991
 H    -3.539367    -1.745252     0.767635
 C    -4.709830    -0.109525    -0.059068
 H    -4.668437     0.555706    -0.936334
 H    -4.671736     0.546368     0.827511
 C    -6.026852    -0.871705    -0.062895
 H    -6.109688    -1.515907    -0.952484
 H    -6.114581    -1.521361     0.822364
 H    -6.889060    -0.187520    -0.063150
 H    -0.950715     1.228392     1.590518
 H    -2.716339     1.086160     1.833557
 C    -1.539904    -0.484765     2.767761
 H    -0.640814    -1.070140     2.509650
 H    -2.367966    -1.212662     2.818747
 C    -1.370790     0.193279     4.117466
 H    -0.525545     0.899408     4.099278
 H    -2.270494     0.762294     4.403328
 H    -1.173442    -0.541072     4.913028
 C     1.992720     2.472901     1.020680
 H     2.998623     2.360839     0.583402
 H     1.600764     3.446815     0.676134
 C     2.074000     2.444373     2.534439
 H     2.715051     3.282238     2.861470
 H     1.068912     2.645666     2.945348
 C     2.598901     1.128906     3.091823
 H     3.600164     0.930483     2.669346
 H     1.950708     0.311247     2.733840
 C     2.671620     1.104648     4.609456
 H     3.339647     1.891973     4.994611
 H     1.679099     1.266834     5.059538
 H     3.046770     0.138621     4.979051
 H     3.780451     0.849321    -0.417217
 H     3.366497    -0.570713     0.556759
 C     3.688847    -0.995645    -1.548811
 H     3.746369    -0.413960    -2.484403
 H     2.943950    -1.789300    -1.731770
 C     5.037704    -1.628330    -1.246457
 H     5.806568    -0.864895    -1.045305
 H     4.970237    -2.280283    -0.361545
 H     5.388799    -2.243660    -2.088536
 H     1.430391     0.257342    -2.892537
 H     0.099839     1.204536    -2.241888
 C     1.965700     2.316917    -2.420254
 H     3.047248     2.137624    -2.291591
 H     1.690817     3.076678    -1.670703
 C     1.708036     2.871830    -3.813419
 H     2.000081     2.148599    -4.591254
 H     0.638639     3.093918    -3.958988
 H     2.270775     3.801114    -3.990968
