  62
scf done:    -1683.281701
 C     1.368507    -2.516602     0.344896
 H     1.115140    -3.401265    -0.261665
 H     2.413813    -2.280917     0.088163
 C     1.284124    -2.862430     1.826867
 H     0.264622    -3.161616     2.120291
 H     1.956508    -3.699853     2.093656
 H     1.573440    -2.003695     2.452885
Ir    -0.005035    -0.890859     0.008282
 O     2.905653    -0.106969     1.333233
 C     2.934279     0.072148    -1.455883
 C     2.045420     2.251243     0.313345
 O    -1.352892     2.027397     0.962275
 C    -2.492633     1.301934    -1.448279
 C    -3.155243     0.017390     1.154402
 P    -1.730716     0.629491     0.128233
 P     1.936557     0.412111     0.092265
 C    -1.053537    -2.181723    -0.806367
 O    -1.575547    -2.983406    -1.454698
 C     4.271791     0.158168     1.489191
 H     4.881451    -0.356008     0.726432
 H     4.504515     1.237886     1.459987
 H     4.567141    -0.227507     2.475757
 H     3.374875    -0.909483    -1.204354
 C     2.034313    -0.135356    -2.671607
 H     2.630537    -0.502045    -3.522449
 H     1.239717    -0.861840    -2.445522
 H     1.550017     0.803090    -2.984121
 C     4.062490     1.050207    -1.770562
 H     4.752869     1.210759    -0.931805
 H     4.657341     0.662570    -2.613328
 H     3.673732     2.032671    -2.078643
 H     3.110683     2.500437     0.167893
 C     1.235641     2.987484    -0.746733
 H     1.348083     4.076247    -0.619224
 H     1.554774     2.738737    -1.769386
 H     0.169778     2.745646    -0.647210
 C     1.648116     2.634911     1.734631
 H     2.292146     2.147068     2.479766
 H     1.734083     3.725703     1.868894
 H     0.607530     2.341876     1.931620
 C    -2.214414     3.106290     1.205958
 H    -2.453482     3.661978     0.282825
 H    -3.158173     2.797665     1.687979
 H    -1.690507     3.791348     1.889200
 H    -1.870839     2.201535    -1.614080
 C    -2.245972     0.358161    -2.621623
 H    -2.556965     0.836639    -3.564084
 H    -1.183653     0.085783    -2.694997
 H    -2.816822    -0.577693    -2.520452
 C    -3.956185     1.729373    -1.379602
 H    -4.166882     2.436583    -0.566060
 H    -4.245149     2.219676    -2.323431
 H    -4.622394     0.863676    -1.249787
 H    -3.902675     0.829118     1.166547
 C    -3.813531    -1.228791     0.574076
 H    -4.743723    -1.449504     1.121482
 H    -4.071014    -1.127642    -0.490483
 H    -3.154260    -2.102108     0.672737
 C    -2.662038    -0.227944     2.577271
 H    -2.241230     0.681297     3.030056
 H    -3.487941    -0.581501     3.215124
 H    -1.871479    -0.996172     2.578208
