 102
scf done:    -2307.036386
 C     1.542346    -2.801735    -1.161824
 H     1.096134    -3.479048    -1.907885
 H     2.443717    -2.408994    -1.661749
 C     1.928811    -3.633713     0.056581
 H     1.045071    -4.089953     0.530423
 H     2.614592    -4.459957    -0.208585
 H     2.428520    -3.038136     0.838826
Ir     0.173006    -1.228148    -0.652547
 O     2.263203    -0.394154     2.022971
 C     3.633482    -0.530609    -0.208804
 C     1.723382     1.726444     0.369878
 O    -1.277439     0.891674     1.554057
 C    -2.311701     1.394563    -0.962166
 C    -2.968574    -1.132259     0.610125
 P    -1.606540     0.063640     0.139884
 P     1.949619    -0.109312     0.416519
 C    -0.754639    -1.867097    -2.121942
 O    -1.187036    -2.207897    -3.138721
 C     1.197325    -0.521571     2.967412
 H     0.429887     0.229875     2.731235
 C     1.793355    -0.229895     4.327832
 H     2.235331     0.777277     4.350574
 H     2.585449    -0.957280     4.564039
 H     1.021950    -0.291397     5.110261
 C     0.548302    -1.888669     2.881393
 H     0.167037    -2.068789     1.859336
 H     1.266322    -2.686160     3.125875
 H    -0.301567    -1.952213     3.578356
 H     3.573155    -1.631029    -0.252572
 C     4.819047    -0.203852     0.701258
 H     4.618457    -0.562819     1.720040
 H     4.961404     0.886232     0.771193
 C     6.089124    -0.837902     0.139240
 H     6.950542    -0.587383     0.779936
 H     5.986878    -1.937743     0.172487
 C     6.352123    -0.401054    -1.298561
 H     7.251146    -0.900959    -1.694510
 H     6.569999     0.682867    -1.310975
 C     5.151142    -0.675856    -2.197914
 H     4.998784    -1.766527    -2.286741
 H     5.340608    -0.304615    -3.218184
 C     3.880749    -0.044490    -1.637180
 H     3.999011     1.052898    -1.636279
 H     3.012372    -0.272132    -2.276644
 H     0.810335     1.823007     0.986280
 C     1.372486     2.255275    -1.023078
 H     0.586473     1.626745    -1.471533
 H     2.247012     2.168153    -1.687595
 C     0.952043     3.719724    -0.954153
 H     0.735520     4.099180    -1.966390
 H     0.009987     3.801721    -0.384104
 C     2.018449     4.578281    -0.280306
 H     1.677077     5.623126    -0.198351
 H     2.920477     4.596556    -0.918719
 C     2.396710     4.031600     1.093021
 H     1.531012     4.121693     1.773999
 H     3.202605     4.637754     1.538006
 C     2.821961     2.567652     1.014110
 H     3.740283     2.500655     0.406676
 H     3.071970     2.173652     2.011300
 C    -2.060312     1.803612     2.326468
 H    -3.128591     1.644031     2.117252
 C    -1.702505     3.239703     1.990515
 H    -1.910729     3.478881     0.939176
 H    -0.634829     3.424368     2.180018
 H    -2.286310     3.931964     2.615729
 C    -1.805255     1.499268     3.791551
 H    -2.021080     0.445500     4.019322
 H    -0.753620     1.694507     4.049934
 H    -2.438675     2.130761     4.432231
 H    -1.590273     2.209231    -0.762336
 C    -3.717325     1.932050    -0.675803
 H    -3.838025     2.209260     0.380342
 H    -4.459084     1.140898    -0.873077
 C    -4.032747     3.138356    -1.557895
 H    -5.053473     3.498189    -1.349131
 H    -3.350948     3.966904    -1.291058
 C    -3.871008     2.811493    -3.036929
 H    -4.065744     3.705001    -3.651878
 H    -4.630698     2.062959    -3.326578
 C    -2.483500     2.252630    -3.326244
 H    -1.728215     3.039160    -3.144023
 H    -2.391796     1.974359    -4.388297
 C    -2.163362     1.048687    -2.447387
 H    -2.835905     0.213895    -2.707591
 H    -1.141490     0.690819    -2.642510
 H    -2.358404    -1.973174     0.991293
 C    -3.730533    -1.659587    -0.610928
 H    -3.036793    -1.962943    -1.405097
 H    -4.358769    -0.856129    -1.030751
 C    -4.624438    -2.837806    -0.236897
 H    -5.174120    -3.184943    -1.126514
 H    -3.988699    -3.681995     0.084623
 C    -5.590254    -2.473967     0.883103
 H    -6.200360    -3.346211     1.168319
 H    -6.297070    -1.706306     0.518182
 C    -4.841516    -1.930096     2.092704
 H    -4.216147    -2.732756     2.523536
 H    -5.547785    -1.628593     2.883484
 C    -3.943361    -0.750291     1.725409
 H    -4.574465     0.097102     1.406636
 H    -3.391735    -0.428801     2.618838
