 100
scf done:    -2456.443562
 C    -0.172591     0.634599    -3.185595
 H    -0.885225     0.026366    -3.774294
 H    -0.655247     1.621697    -3.073769
 C     1.107643     0.818945    -3.992675
 H     1.556907    -0.146082    -4.275010
 H     0.928968     1.379724    -4.929113
 H     1.870463     1.368644    -3.418570
Ir     0.113976    -0.121659    -1.210797
 C    -3.078398     1.525289    -1.873130
 C    -2.955231    -1.334678    -1.802887
 C    -3.103257     0.086842     0.662694
 C    -0.175895    -1.005203     2.418059
 C     2.220359    -1.881379     1.109220
 C     1.741456     1.010885     1.619503
 P     0.916628    -0.531895     0.976704
 P    -2.197864     0.146304    -0.959186
 C     1.323769    -1.315076    -1.904543
 O     1.884685    -2.232112    -2.346289
 H    -2.820949     1.295366    -2.921475
 C    -4.595802     1.530641    -1.733151
 H    -5.027766     2.290932    -2.403864
 H    -5.060376     0.569276    -1.996490
 H    -4.901327     1.794471    -0.709033
 C    -2.498756     2.896423    -1.538818
 H    -1.400640     2.887769    -1.556779
 H    -2.840953     3.640891    -2.275543
 H    -2.818456     3.237688    -0.544068
 H    -4.045516    -1.189295    -1.839529
 H    -2.571909    -1.293688    -2.833139
 C    -2.631016    -2.652113    -1.165476
 C    -1.462281    -3.345198    -1.504163
 H    -0.791007    -2.930165    -2.256290
 C    -3.483221    -3.207433    -0.205206
 H    -4.409580    -2.683961     0.051984
 C    -1.159398    -4.552108    -0.881869
 H    -0.245655    -5.084451    -1.157097
 C    -3.190000    -4.416171     0.436828
 C    -4.100309    -4.957442     1.501060
 H    -4.010731    -6.049417     1.592802
 H    -3.854311    -4.525167     2.485999
 H    -5.153503    -4.716446     1.294332
 C    -2.012466    -5.083074     0.084627
 H    -1.765399    -6.032161     0.568437
 H    -4.150646    -0.181356     0.457613
 H    -2.672170    -0.765191     1.211280
 C    -3.055558     1.344115     1.484948
 C    -1.863915     2.053711     1.671905
 H    -0.958766     1.702967     1.175854
 C    -4.218944     1.839645     2.081934
 H    -5.160066     1.299124     1.937587
 C    -1.842116     3.218095     2.432436
 H    -0.905062     3.767943     2.553326
 C    -4.219390     3.007298     2.854115
 C    -5.481934     3.492709     3.505465
 H    -5.465775     4.581855     3.654656
 H    -6.368673     3.241385     2.905466
 H    -5.616206     3.028292     4.496800
 C    -3.011743     3.693780     3.021212
 H    -2.990975     4.613715     3.611732
 H    -0.979011    -0.251864     2.380753
 C    -0.784373    -2.379637     2.166812
 H    -1.599006    -2.579227     2.881486
 H    -1.190326    -2.472250     1.149448
 H    -0.040706    -3.181872     2.292836
 C     0.481307    -0.911947     3.788952
 H     0.830081     0.104306     4.021008
 H    -0.242082    -1.196469     4.570300
 H     1.339560    -1.596706     3.884145
 H     2.045226    -2.396866     2.064178
 H     1.987900    -2.597686     0.309393
 C     3.655745    -1.454673     1.042477
 C     4.350256    -1.390417    -0.169387
 H     3.850455    -1.666626    -1.098246
 C     4.336699    -1.115697     2.220807
 H     3.809987    -1.185839     3.178222
 C     5.683065    -0.983760    -0.190524
 H     6.215276    -0.936794    -1.143628
 C     5.670880    -0.701408     2.216904
 C     6.370480    -0.323844     3.490735
 H     5.759341    -0.561108     4.372930
 H     7.332045    -0.850451     3.591622
 H     6.589751     0.756056     3.517008
 C     6.338756    -0.636720     0.986720
 H     7.384571    -0.318216     0.956477
 H     0.949751     1.565393     2.148492
 H     2.501454     0.741953     2.366053
 C     2.337785     1.860191     0.531794
 C     3.718585     1.900143     0.326944
 H     4.379755     1.322066     0.974493
 C     1.511202     2.613308    -0.311505
 H     0.429719     2.613763    -0.142730
 C     4.251251     2.663735    -0.708633
 H     5.332781     2.681056    -0.863918
 C     2.030107     3.393536    -1.350324
 C     1.118786     4.181153    -2.244926
 H     0.614115     3.519498    -2.967760
 H     0.334067     4.695148    -1.670020
 H     1.673104     4.937274    -2.818559
 C     3.416030     3.401585    -1.542845
 H     3.842276     4.001287    -2.351778
