  90
scf done:    -2449.690454
 C    -1.346547    -2.710040    -1.240426
 H    -0.918538    -3.724222    -1.198555
 H    -2.334187    -2.787820    -0.762310
 C    -1.491692    -2.295173    -2.698728
 H    -0.512671    -2.206614    -3.199375
 H    -2.080769    -3.031268    -3.276248
 H    -2.000376    -1.324376    -2.808015
Ir    -0.038056    -1.316728    -0.269655
 O    -2.215967     1.057713    -1.683886
 C    -3.490448    -0.685496    -0.203316
 C    -2.014251     1.410941     1.040378
 O     2.090037     0.297714     1.921751
 C     3.415776    -0.646620    -0.259954
 C     1.893703     1.758493    -0.275231
 P     1.788056     0.026681     0.303590
 P    -1.878134     0.177458    -0.321611
 C     0.760230    -2.824466     0.443067
 O     1.115051    -3.765961     1.010148
 C    -1.197334     1.874837    -2.267062
 H    -0.232264     1.586829    -1.822126
 C    -1.463196     3.332179    -1.945535
 H    -1.471182     3.499375    -0.859346
 H    -2.433181     3.649220    -2.359553
 H    -0.674609     3.964724    -2.377388
 C    -1.166336     1.587148    -3.752438
 H    -0.933632     0.529347    -3.939159
 H    -2.144001     1.813585    -4.205851
 H    -0.404678     2.207438    -4.248037
 C    -4.370887    -0.652716    -1.289712
 H    -4.092612    -0.084331    -2.177522
 C    -3.826685    -1.415478     0.956576
 C    -2.902553    -1.519899     2.131714
 H    -2.886113    -0.588354     2.718868
 H    -1.868152    -1.706467     1.792036
 H    -3.205651    -2.339372     2.797594
 C    -5.590819    -1.320944    -1.239954
 H    -6.266017    -1.285326    -2.098034
 C    -5.060511    -2.074670     0.984174
 H    -5.328212    -2.645247     1.877629
 C    -5.939360    -2.031290    -0.094817
 H    -6.893561    -2.561141    -0.041884
 C    -0.997653     1.405398     1.996970
 H    -0.187542     0.684823     1.891751
 C    -3.092503     2.319827     1.173589
 C    -4.268901     2.367722     0.243334
 H    -4.967445     1.544398     0.461909
 H    -3.969391     2.256919    -0.805136
 H    -4.814634     3.313928     0.363740
 C    -1.002933     2.280499     3.078612
 H    -0.191791     2.247720     3.810027
 C    -3.067266     3.204784     2.258566
 H    -3.887253     3.920534     2.363694
 C    -2.043897     3.193759     3.203859
 H    -2.066957     3.899214     4.038242
 C     2.280546    -0.842239     2.775373
 H     2.561895    -1.708755     2.150494
 C     0.998450    -1.165819     3.514413
 H     0.187517    -1.372826     2.801807
 H     0.696688    -0.324640     4.157087
 H     1.136359    -2.056279     4.145399
 C     3.436812    -0.526762     3.701173
 H     4.363806    -0.367561     3.133164
 H     3.221873     0.383091     4.282981
 H     3.600550    -1.356907     4.404103
 C     3.397688    -1.823037    -1.019137
 H     2.430546    -2.276002    -1.251722
 C     4.654110    -0.017306     0.016139
 C     4.792468     1.292332     0.738961
 H     4.077740     1.390057     1.563168
 H     4.604206     2.133179     0.051891
 H     5.812513     1.405861     1.132665
 C     4.567684    -2.406537    -1.494100
 H     4.520340    -3.324353    -2.084105
 C     5.820187    -0.632931    -0.457371
 H     6.782415    -0.162084    -0.237516
 C     5.789476    -1.809407    -1.200950
 H     6.723042    -2.254964    -1.553405
 C     1.737167     2.808120     0.636318
 H     1.576897     2.575674     1.688743
 C     2.111910     2.035995    -1.641935
 C     2.251285     0.952800    -2.673213
 H     1.559141     0.115230    -2.481018
 H     3.267162     0.528585    -2.677697
 H     2.042239     1.344353    -3.678285
 C     1.809963     4.133139     0.217275
 H     1.682179     4.940019     0.942353
 C     2.196889     3.376041    -2.036169
 H     2.372957     3.601210    -3.091863
 C     2.051875     4.418405    -1.123861
 H     2.119196     5.454259    -1.465015
