  94
scf done:    -2750.357071
 C     1.056650     1.534234    -2.661605
 H     1.016865     2.578006    -3.015424
 H     2.120362     1.368056    -2.419422
 C     0.627594     0.591940    -3.781104
 H    -0.408938     0.787019    -4.100942
 H     1.268711     0.689413    -4.677851
 H     0.671296    -0.464927    -3.469491
Ir    -0.251628     1.231511    -0.981815
 O     1.247347    -0.206550     1.618365
 C     2.087496    -1.413856    -0.677500
 C     3.048052     1.201518     0.084575
 O    -1.740274     0.982421     2.158555
 C    -3.527339     0.645434     0.167890
 C    -1.649053    -1.317773     0.864451
 P    -1.750915     0.477176     0.576826
 P     1.548853     0.170978     0.039748
 C    -1.307480     2.624529    -1.620445
 O    -1.856811     3.593064    -1.922810
 C     2.194530    -0.252653     2.684642
 H     2.887930     0.599631     2.567136
 C     2.994152    -1.542856     2.687960
 H     3.552150    -1.684231     1.753116
 H     2.327292    -2.408778     2.817467
 H     3.715065    -1.532924     3.519755
 C     1.406438    -0.074528     3.966661
 H     0.780281     0.824926     3.910493
 H     0.744848    -0.937904     4.131968
 H     2.086224     0.012722     4.827205
 C     2.864863    -1.491206    -1.845250
 H     3.268157    -0.582083    -2.296979
 C     1.570722    -2.594859    -0.142043
 H     0.946400    -2.548369     0.751311
 C     3.126675    -2.716121    -2.438806
 H     3.730969    -2.789360    -3.344806
 C     1.822941    -3.831198    -0.731314
 H     1.382152    -4.725489    -0.289598
 C     2.605778    -3.897679    -1.888916
 O     2.902845    -5.039529    -2.538082
 C     2.384168    -6.244516    -2.048250
 H     1.280023    -6.241755    -2.034955
 H     2.730401    -7.035049    -2.726004
 H     2.747624    -6.463583    -1.028553
 C     2.897998     2.598468     0.090485
 H     1.892532     3.017835    -0.010895
 C     4.337936     0.670737     0.163047
 H     4.485023    -0.411583     0.138311
 C     3.998348     3.431341     0.191118
 H     3.892316     4.517583     0.190757
 C     5.456035     1.497612     0.258135
 H     6.447926     1.048645     0.311381
 C     5.289676     2.888092     0.277969
 O     6.299763     3.769995     0.368011
 C     7.614918     3.293028     0.441084
 H     7.889699     2.709767    -0.455169
 H     8.265482     4.174269     0.504100
 H     7.774852     2.666569     1.336199
 C    -1.828548     2.387650     2.417691
 H    -2.531267     2.834493     1.687597
 C    -0.478318     3.060799     2.263635
 H    -0.080754     2.865227     1.254736
 H     0.239491     2.676595     3.003475
 H    -0.575217     4.148219     2.401884
 C    -2.411774     2.535177     3.807172
 H    -3.405562     2.068829     3.868299
 H    -1.755720     2.049658     4.546401
 H    -2.508899     3.597762     4.074659
 C    -4.501755     0.526369     1.172318
 H    -4.185692     0.371851     2.206768
 C    -3.946798     0.820270    -1.149780
 H    -3.198594     0.905078    -1.942468
 C    -5.849235     0.601423     0.865275
 H    -6.617035     0.518916     1.637067
 C    -5.301847     0.884268    -1.476133
 H    -5.592477     1.023185    -2.517524
 C    -6.262260     0.781507    -0.464786
 O    -7.591880     0.842456    -0.669371
 C    -8.066488     1.022864    -1.974191
 H    -7.765364     0.194154    -2.639158
 H    -9.161774     1.046074    -1.910457
 H    -7.713987     1.973565    -2.411608
 C    -1.756518    -2.164561    -0.249146
 H    -1.927482    -1.736011    -1.240967
 C    -1.418381    -1.878587     2.117498
 H    -1.338885    -1.221151     2.984030
 C    -1.623447    -3.535989    -0.111988
 H    -1.690839    -4.202572    -0.973362
 C    -1.263610    -3.259032     2.265894
 H    -1.066815    -3.668772     3.257159
 C    -1.353237    -4.092881     1.145659
 O    -1.168631    -5.432082     1.175139
 C    -0.910798    -6.046804     2.405693
 H    -1.737490    -5.895819     3.121963
 H    -0.806740    -7.121122     2.206750
 H     0.024405    -5.676411     2.862778
