 104
scf done:    -2233.252178
 C    -0.667042    -3.309732    -1.562700
 H    -0.248202    -4.298111    -1.315195
 H    -1.735377    -3.385852    -1.299902
 C    -0.509728    -3.067687    -3.061537
 H     0.549844    -3.081435    -3.363094
 H    -1.028359    -3.834726    -3.667478
 H    -0.907396    -2.087049    -3.376995
Ir     0.328674    -1.731897    -0.517413
 O    -1.429964     1.075825    -1.264646
 C    -3.116567    -1.088412    -1.412097
 C    -2.147618    -0.118185     1.130957
 O     0.946161     1.045183     1.386153
 C     3.268416    -0.352803     0.776989
 C     1.884267     1.279595    -1.166041
 P     1.577952     0.067525     0.176859
 P    -1.610653    -0.431483    -0.594428
 C     1.501653    -2.985620     0.176507
 O     2.153256    -3.759360     0.735812
 C    -2.099336     2.267003    -0.895905
 H    -2.719128     2.597945    -1.748027
 H    -2.786422     2.098342    -0.050481
 C    -1.085815     3.331837    -0.532915
 H    -0.434603     2.925120     0.257432
 H    -0.437175     3.510560    -1.407364
 C    -1.716701     4.640932    -0.084661
 H    -2.320535     4.464610     0.823546
 H    -2.427907     4.992117    -0.853439
 C    -0.688776     5.727869     0.188173
 H     0.020590     5.418159     0.972243
 H    -0.098466     5.953264    -0.714598
 H    -1.162118     6.664019     0.520180
 H    -2.806324    -1.438326    -2.409592
 H    -3.381316    -1.998887    -0.847806
 C    -4.311414    -0.153200    -1.522074
 H    -4.580854     0.248411    -0.529354
 H    -4.037782     0.717271    -2.140644
 C    -5.534024    -0.829629    -2.128283
 H    -5.813703    -1.701108    -1.508915
 H    -5.267788    -1.241681    -3.118376
 C    -6.733397     0.097037    -2.270292
 H    -6.991180     0.509446    -1.278390
 H    -6.446600     0.966341    -2.888508
 C    -7.952233    -0.581067    -2.874689
 H    -8.801425     0.113093    -2.964829
 H    -8.282385    -1.432415    -2.257934
 H    -7.733329    -0.971696    -3.881450
 H    -1.354274     0.525443     1.541882
 H    -3.096984     0.441128     1.159210
 C    -2.250296    -1.394028     1.958662
 H    -3.073060    -2.028199     1.583349
 H    -1.323676    -1.976840     1.811639
 C    -2.461666    -1.111747     3.438870
 H    -3.374499    -0.502665     3.577661
 H    -1.627521    -0.486662     3.805800
 C    -2.559539    -2.371201     4.287653
 H    -3.395670    -2.991959     3.919751
 H    -1.649962    -2.977899     4.134758
 C    -2.745361    -2.086802     5.769238
 H    -2.811396    -3.014738     6.357276
 H    -3.666102    -1.509796     5.953875
 H    -1.904429    -1.498335     6.170792
 C     1.673602     1.656828     2.432723
 H     1.824150     0.924978     3.248587
 H     2.671868     1.976566     2.092001
 C     0.929225     2.869960     2.950726
 H     1.546473     3.319444     3.748858
 H     0.876933     3.623894     2.145837
 C    -0.468994     2.590998     3.479493
 H    -0.413447     1.817844     4.266223
 H    -1.075593     2.151689     2.672684
 C    -1.159393     3.832509     4.019536
 H    -0.593323     4.279118     4.852860
 H    -1.257476     4.605030     3.239627
 H    -2.170397     3.604284     4.389344
 H     3.783075     0.524734     1.196426
 H     3.123873    -1.067725     1.604122
 C     4.117554    -0.983077    -0.323957
 H     3.487790    -1.637917    -0.952300
 H     4.493000    -0.191537    -0.995626
 C     5.287149    -1.792110     0.217686
 H     4.890956    -2.602544     0.855005
 H     5.904514    -1.156415     0.878980
 C     6.162293    -2.392139    -0.873323
 H     5.534262    -3.018844    -1.530576
 H     6.551204    -1.581442    -1.515202
 C     7.318614    -3.217049    -0.332099
 H     7.931135    -3.640144    -1.142680
 H     6.954971    -4.055843     0.282815
 H     7.982079    -2.607866     0.303063
 H     2.442160     0.728840    -1.942728
 H     0.887259     1.475461    -1.591067
 C     2.579029     2.577644    -0.787009
 H     2.007691     3.069796     0.017700
 H     3.582151     2.372959    -0.371852
 C     2.710209     3.548010    -1.953164
 H     1.712996     3.708679    -2.401616
 H     3.322676     3.088732    -2.749923
 C     3.305515     4.892030    -1.558381
 H     2.687375     5.334785    -0.756690
 H     4.302436     4.730625    -1.111009
 C     3.414877     5.869384    -2.717290
 H     3.847421     6.830558    -2.400753
 H     2.425923     6.078161    -3.156660
 H     4.051348     5.466595    -3.521503
