  90
scf done:    -2449.688605
 C    -1.433440    -3.045000     0.776874
 H    -1.247106    -3.654613     1.675651
 H    -2.464575    -2.675201     0.883086
 C    -1.317806    -3.925554    -0.462355
 H    -0.319011    -4.384281    -0.547767
 H    -2.054720    -4.750897    -0.453764
 H    -1.489407    -3.359283    -1.393103
Ir    -0.014803    -1.462353     0.564598
 O    -1.379178     0.529449    -1.792277
 C    -3.353690    -0.780068    -0.461411
 C    -1.956184     1.345653     0.837839
 O     2.104401     0.642563     1.712542
 C     3.287073    -0.872111    -0.324608
 C     1.778553     1.473571    -0.840375
 P     1.758803    -0.016623     0.231952
 P    -1.675650    -0.077801    -0.284166
 C     0.929691    -2.273257     1.947080
 O     1.420432    -2.684508     2.905369
 C    -1.926483     1.683233    -2.431650
 H    -1.830719     2.536767    -1.736153
 C    -3.381916     1.515384    -2.834565
 H    -4.041418     1.291002    -1.985957
 H    -3.490669     0.694416    -3.558731
 H    -3.737273     2.442052    -3.310864
 C    -1.049678     1.939251    -3.638945
 H    -0.002080     2.038681    -3.334030
 H    -1.128352     1.100457    -4.347547
 H    -1.360024     2.861592    -4.152897
 C    -3.643937    -1.533564    -1.605930
 H    -2.900401    -1.606908    -2.403067
 C    -4.311285    -0.704997     0.552861
 H    -4.099238    -0.138172     1.462368
 C    -4.868125    -2.176227    -1.737028
 H    -5.077244    -2.755661    -2.640855
 C    -5.537263    -1.353536     0.415113
 H    -6.276032    -1.280066     1.218006
 C    -5.838470    -2.099412    -0.728206
 C    -7.146519    -2.820969    -0.867502
 H    -7.590322    -2.661051    -1.861997
 H    -7.009234    -3.908133    -0.745893
 H    -7.872668    -2.491543    -0.111202
 C    -2.955130     2.305536     0.622138
 H    -3.638410     2.211324    -0.222981
 C    -1.144213     1.475450     1.971642
 H    -0.372979     0.719719     2.153493
 C    -3.105510     3.381566     1.491669
 H    -3.885070     4.123387     1.296680
 C    -1.306237     2.549340     2.841959
 H    -0.655050     2.628642     3.716907
 C    -2.282590     3.526182     2.615726
 C    -2.469363     4.668617     3.569644
 H    -1.518580     4.961452     4.038099
 H    -2.894718     5.549945     3.068386
 H    -3.160071     4.388549     4.382657
 C     3.207707     1.476451     2.058968
 H     3.627974     1.928505     1.141517
 C     4.261932     0.640054     2.760164
 H     4.622719    -0.169559     2.111681
 H     3.831215     0.184661     3.664757
 H     5.122083     1.260907     3.054170
 C     2.674174     2.588278     2.941568
 H     1.928247     3.192345     2.406650
 H     2.195524     2.158583     3.835052
 H     3.489950     3.250589     3.267931
 C     3.218897    -2.249570    -0.556706
 H     2.260352    -2.758448    -0.412109
 C     4.515022    -0.225887    -0.537992
 H     4.598559     0.854934    -0.406242
 C     4.342482    -2.962837    -0.968561
 H     4.259065    -4.038253    -1.147425
 C     5.635883    -0.942843    -0.938029
 H     6.582345    -0.417027    -1.093077
 C     5.572611    -2.326694    -1.156169
 C     6.794690    -3.096563    -1.560490
 H     7.412475    -2.528410    -2.271757
 H     7.426510    -3.313773    -0.683061
 H     6.531685    -4.058312    -2.022858
 C     1.133650     2.636153    -0.398049
 H     0.626914     2.640327     0.568166
 C     2.398093     1.497927    -2.095338
 H     2.893388     0.603167    -2.477231
 C     1.134843     3.790883    -1.173818
 H     0.628360     4.685432    -0.800306
 C     2.404154     2.660143    -2.862832
 H     2.904852     2.656094    -3.835178
 C     1.776834     3.828950    -2.417470
 C     1.746626     5.063094    -3.268936
 H     2.650339     5.149022    -3.889553
 H     0.881737     5.040780    -3.953622
 H     1.657928     5.973970    -2.659586
