  74
scf done:    -1840.444299
 C    -1.038796    -2.967092    -0.737135
 H    -0.614028    -3.909736    -0.355475
 H    -2.021669    -2.893215    -0.236734
 C    -1.222085    -3.086267    -2.247841
 H    -0.257492    -3.242893    -2.755892
 H    -1.877568    -3.932674    -2.528097
 H    -1.662287    -2.178520    -2.693834
Ir     0.231011    -1.290965    -0.289661
 O    -1.428417     1.630547    -0.674408
 C    -3.223366    -0.418579    -0.995114
 C    -2.130887     0.278995     1.617538
 O     1.389968     1.582703     1.195362
 C     3.423777     0.119014     0.071180
 C     1.596712     1.730188    -1.446668
 P     1.630943     0.519008    -0.076389
 P    -1.669314     0.082828    -0.146854
 C     1.555839    -2.508822     0.143435
 O     2.353347    -3.250171     0.529104
 C    -2.181582     2.795374    -0.341984
 H    -2.967601     2.532147     0.387238
 C    -2.835311     3.323152    -1.604152
 H    -3.513555     2.575989    -2.041482
 H    -2.066061     3.564599    -2.353462
 H    -3.413944     4.235278    -1.393819
 C    -1.238703     3.795097     0.299842
 H    -0.716252     3.339378     1.151677
 H    -0.472671     4.116221    -0.422590
 H    -1.786973     4.685757     0.641968
 H    -3.062806    -0.131313    -2.048339
 H    -3.232341    -1.519959    -0.987074
 C    -4.555711     0.115377    -0.482478
 H    -4.544632     1.216972    -0.445172
 H    -4.712786    -0.221274     0.555727
 C    -5.723510    -0.345325    -1.342224
 H    -5.619626     0.012079    -2.379121
 H    -5.779873    -1.444749    -1.378478
 H    -6.683211     0.027696    -0.953498
 H    -1.296712     0.849634     2.056314
 H    -3.037835     0.898156     1.711381
 C    -2.309726    -1.052603     2.338556
 H    -1.385630    -1.641247     2.211978
 H    -3.104238    -1.640376     1.846957
 C    -2.642178    -0.877631     3.811504
 H    -1.846385    -0.325547     4.337011
 H    -3.579874    -0.315638     3.951566
 H    -2.757548    -1.850107     4.313230
 C     1.916364     1.373533     2.498761
 H     3.017968     1.295608     2.425920
 C     1.390001     0.108574     3.155082
 H     1.561272    -0.779108     2.529171
 H     0.306014     0.178933     3.326115
 H     1.882702    -0.046385     4.126780
 C     1.583167     2.618044     3.296926
 H     1.972279     3.514730     2.793686
 H     0.491812     2.725959     3.397914
 H     2.019405     2.562751     4.305318
 H     3.988456     1.027428     0.339543
 H     3.525413    -0.585986     0.913038
 C     3.981527    -0.514731    -1.200527
 H     4.091447     0.261509    -1.976491
 H     3.249714    -1.238416    -1.600090
 C     5.312776    -1.212877    -0.973195
 H     6.066877    -0.520694    -0.565107
 H     5.198783    -2.044426    -0.260024
 H     5.712547    -1.629382    -1.910157
 H     1.852452     1.152521    -2.351594
 H     0.536059     2.002559    -1.548619
 C     2.473019     2.964281    -1.294446
 H     3.536610     2.673133    -1.252505
 H     2.247914     3.437695    -0.325204
 C     2.267821     3.962885    -2.423662
 H     2.505566     3.516855    -3.402689
 H     1.220496     4.303668    -2.466569
 H     2.903466     4.853016    -2.298755
