  86
scf done:    -1997.548622
 C     0.405478    -2.377482    -1.894246
 H     1.231275    -3.106130    -1.932483
 H    -0.493741    -2.990358    -1.709351
 C     0.305654    -1.683976    -3.249669
 H     1.217258    -1.106953    -3.474770
 H     0.167961    -2.402555    -4.079354
 H    -0.528828    -0.963954    -3.297868
Ir     0.752584    -0.927953    -0.359638
 O    -1.704134     0.920045    -1.881204
 C    -2.630451    -1.538481    -1.030967
 C    -2.188428     0.616025     0.808784
 O     0.526978     1.363050     2.180139
 C     3.123248     0.623871     1.690361
 C     1.744182     2.412530    -0.047809
 P     1.475294     0.856648     0.905215
 P    -1.445719    -0.186042    -0.659490
 C     2.041873    -2.060273     0.336207
 O     2.731833    -2.820228     0.866900
 C    -2.821169     0.972163    -2.731540
 H    -2.871285     0.091710    -3.394225
 H    -3.773894     1.057176    -2.182870
 H    -2.706313     1.867457    -3.360003
 H    -3.636750    -1.123932    -1.200978
 H    -2.302070    -1.991733    -1.979595
 C    -2.658465    -2.590925     0.071972
 H    -1.621257    -2.836606     0.360865
 H    -3.133969    -2.170347     0.975156
 C    -3.391535    -3.859576    -0.338772
 H    -2.898251    -4.287069    -1.230574
 H    -4.420665    -3.608088    -0.655639
 C    -3.441837    -4.910045     0.761552
 H    -2.410827    -5.148372     1.076391
 H    -3.932954    -4.478422     1.651898
 C    -4.159828    -6.184219     0.347599
 H    -4.179136    -6.923329     1.162773
 H    -3.666910    -6.656474    -0.517378
 H    -5.203680    -5.979955     0.058911
 H    -2.090486    -0.129149     1.617442
 H    -1.495131     1.418822     1.097294
 C    -3.611723     1.138037     0.696832
 H    -3.661204     1.891991    -0.107051
 H    -4.303913     0.328025     0.406501
 C    -4.102995     1.766643     1.994365
 H    -3.408654     2.574152     2.290009
 H    -4.049484     1.017390     2.804911
 C    -5.517929     2.320920     1.907485
 H    -5.564782     3.064817     1.092256
 H    -6.206307     1.509830     1.610066
 C    -6.000287     2.951139     3.203956
 H    -7.024721     3.342115     3.110416
 H    -5.351013     3.788605     3.506314
 H    -5.997164     2.220180     4.028509
 C     0.878994     2.409625     3.046799
 H     1.672228     2.111078     3.753312
 H     1.213068     3.313937     2.507942
 H    -0.016670     2.671173     3.629628
 H     3.354760     1.478378     2.347555
 H     3.023948    -0.264591     2.336275
 C     4.241051     0.417920     0.672086
 H     3.876434    -0.216703    -0.155211
 H     4.506475     1.386212     0.213580
 C     5.484520    -0.220781     1.273803
 H     5.208580    -1.204626     1.693480
 H     5.838610     0.386633     2.127117
 C     6.616440    -0.399948     0.272299
 H     6.249536    -1.001225    -0.578074
 H     6.886455     0.583855    -0.151594
 C     7.850496    -1.057122     0.868780
 H     8.649698    -1.176091     0.121525
 H     7.615364    -2.057279     1.266734
 H     8.258926    -0.460682     1.700716
 H     2.377928     3.104659     0.534773
 H     2.339673     2.107928    -0.925144
 C     0.456801     3.087659    -0.495902
 H    -0.171372     2.361261    -1.034668
 H    -0.127119     3.397570     0.389017
 C     0.682401     4.294889    -1.394272
 H     1.275159     3.985674    -2.274248
 H     1.296901     5.048782    -0.868008
 C    -0.617808     4.933462    -1.863375
 H    -1.224539     4.165401    -2.374869
 H    -1.208608     5.239157    -0.981280
 C    -0.412817     6.126953    -2.781745
 H    -1.370621     6.564097    -3.102690
 H     0.142806     5.840954    -3.689359
 H     0.164044     6.921928    -2.281983
