 100
scf done:    -2456.434067
 C    -0.320351    -2.075712    -2.745996
 H    -0.230469    -3.164981    -2.890075
 H    -1.375164    -1.861783    -2.990944
 C     0.586356    -1.368848    -3.750897
 H     1.645439    -1.625754    -3.588289
 H     0.344293    -1.638324    -4.796014
 H     0.514541    -0.270291    -3.680235
Ir     0.260866    -1.509786    -0.755764
 C    -1.954712     0.910892    -2.347893
 C    -3.075744    -1.389332    -0.965206
 C    -2.033059     0.915053     0.709727
 C     0.485887    -1.111008     2.822779
 C     3.024097    -1.557138     1.495514
 C     1.734914     1.028809     1.347698
 P     1.337216    -0.770901     1.191286
 P    -1.679844    -0.122502    -0.814845
 C     1.114474    -3.138479    -0.673000
 O     1.518120    -4.219035    -0.587613
 H    -1.742004     0.142913    -3.111804
 C    -3.362494     1.442404    -2.588119
 H    -3.425292     1.841998    -3.613368
 H    -4.134899     0.668015    -2.493791
 H    -3.615682     2.256978    -1.896860
 C    -0.922088     2.017704    -2.511471
 H     0.089851     1.699722    -2.229250
 H    -0.889326     2.341803    -3.563647
 H    -1.188886     2.897664    -1.911039
 H    -3.416811    -1.323946    -2.007645
 H    -2.550837    -2.349734    -0.870729
 C    -4.246372    -1.323857    -0.034731
 C    -5.486282    -0.854886    -0.486079
 H    -5.589598    -0.546648    -1.529184
 C    -4.127355    -1.759493     1.302065
 C    -2.866673    -2.405269     1.796605
 H    -1.956312    -1.985757     1.341697
 H    -2.860132    -3.478214     1.538260
 H    -2.779850    -2.332191     2.889816
 C    -6.584505    -0.763099     0.363965
 H    -7.538903    -0.390490    -0.014917
 C    -5.232903    -1.638364     2.151971
 H    -5.134667    -1.959035     3.192872
 C    -6.451289    -1.139444     1.698476
 H    -7.298084    -1.058026     2.383856
 H    -2.519288     0.217519     1.407731
 H    -1.038075     1.116832     1.121236
 C    -2.838197     2.180407     0.623710
 C    -4.235075     2.111624     0.686609
 H    -4.710293     1.139592     0.819550
 C    -2.220155     3.444550     0.512184
 C    -0.730821     3.622174     0.604351
 H    -0.162091     2.912263    -0.010735
 H    -0.392495     3.495040     1.647240
 H    -0.434742     4.633090     0.292117
 C    -5.026659     3.248337     0.565823
 H    -6.114683     3.159038     0.608511
 C    -3.032786     4.577413     0.378441
 H    -2.554934     5.555633     0.275275
 C    -4.421997     4.490396     0.389078
 H    -5.027403     5.393272     0.279362
 H    -0.526755    -0.705157     2.657701
 C     0.365582    -2.620721     3.007830
 H    -0.306155    -2.853564     3.848947
 H    -0.029733    -3.106651     2.103795
 H     1.341762    -3.077580     3.234668
 C     1.084683    -0.433937     4.048167
 H     1.049572     0.662848     3.984017
 H     0.524975    -0.726957     4.951142
 H     2.133301    -0.730811     4.212205
 H     3.072599    -1.784651     2.570581
 H     3.022302    -2.518122     0.964435
 C     4.209871    -0.715312     1.125709
 C     4.783750     0.109240     2.101107
 H     4.393787     0.069697     3.122998
 C     4.743796    -0.706776    -0.179652
 C     4.218482    -1.619916    -1.245931
 H     3.133633    -1.500814    -1.395155
 H     4.382228    -2.678372    -0.983868
 H     4.717003    -1.430757    -2.206122
 C     5.831956     0.974724     1.801761
 H     6.258213     1.610936     2.581152
 C     5.790944     0.174543    -0.466227
 H     6.190746     0.198570    -1.483276
 C     6.326785     1.019565     0.501907
 H     7.138229     1.702996     0.241490
 H     0.791801     1.533338     1.618437
 H     2.384566     1.140120     2.227045
 C     2.372563     1.721766     0.169857
 C     2.297070     1.211019    -1.127662
 H     1.757642     0.265012    -1.294072
 C     3.059662     2.936869     0.384085
 C     3.154481     3.542874     1.752995
 H     3.703439     2.882114     2.443755
 H     2.159649     3.717363     2.193876
 H     3.682295     4.505879     1.722825
 C     2.897668     1.857527    -2.204241
 H     2.824086     1.422710    -3.203977
 C     3.656639     3.576566    -0.706186
 H     4.193087     4.514158    -0.535948
 C     3.585798     3.047374    -1.992842
 H     4.066687     3.566905    -2.825199
