  80
scf done:    -1918.982121
 C    -3.515869     0.771228     0.032434
 H    -4.320480     0.284179     0.605817
 H    -3.528825     1.818098     0.368459
 C    -3.858551     0.699261    -1.453767
 H    -3.938282    -0.342825    -1.803321
 H    -4.822659     1.190462    -1.684964
 H    -3.095494     1.185369    -2.088430
Ir    -1.646453    -0.244100     0.258582
 O     0.622041     1.620035    -1.417419
 C    -1.420429     3.270824    -0.385516
 C     0.738070     2.010569     1.325002
 O     1.632370    -1.546497     0.403035
 C    -0.296292    -3.468090     0.119763
 C     0.551911    -1.499108    -2.024588
 P     0.090356    -1.677831    -0.246372
 P    -0.407510     1.725328    -0.117738
 C    -2.515393    -1.456706     1.348046
 O    -2.994213    -2.127707     2.158619
 C     1.660895     2.474940    -1.870141
 H     1.569752     2.496204    -2.969899
 H     1.509420     3.505370    -1.520605
 C     3.059247     2.017437    -1.495832
 H     3.749646     2.751359    -1.950659
 H     3.208238     2.104807    -0.406463
 C     3.439480     0.614280    -1.944627
 H     3.121904     0.464057    -2.991701
 H     2.878095    -0.117461    -1.344776
 C     4.928505     0.334626    -1.817632
 H     5.522941     1.009489    -2.454586
 H     5.275466     0.472544    -0.781193
 H     5.168501    -0.698801    -2.110124
 H    -2.257142     2.864704    -0.977569
 C    -1.999694     3.762831     0.939921
 H    -2.858853     4.424178     0.746172
 H    -2.354776     2.937300     1.572437
 H    -1.262551     4.342124     1.514553
 C    -0.821187     4.416365    -1.191088
 H    -0.505016     4.096958    -2.193355
 H    -1.587485     5.197312    -1.326032
 H     0.033982     4.889259    -0.685003
 H     1.480832     1.225672     1.099571
 C     1.460071     3.352068     1.409752
 H     2.228816     3.301379     2.198391
 H     1.969382     3.640304     0.482278
 H     0.774077     4.165961     1.684043
 C     0.087632     1.657907     2.660898
 H    -0.512661     0.738014     2.572583
 H     0.865542     1.509983     3.427713
 H    -0.573942     2.461299     3.015331
 C     1.755277    -1.612139     1.812427
 H     1.128880    -0.832032     2.280714
 H     1.383557    -2.584520     2.183319
 C     3.209915    -1.452986     2.198524
 H     3.304950    -1.681008     3.274494
 H     3.794947    -2.222651     1.665037
 C     3.789337    -0.076842     1.908680
 H     3.244103     0.677233     2.503324
 H     3.597358     0.167761     0.852508
 C     5.277730     0.022802     2.196716
 H     5.499532    -0.197669     3.253402
 H     5.849374    -0.693749     1.585202
 H     5.666622     1.029255     1.978762
 H    -0.623272    -3.409102     1.173650
 C    -1.489419    -3.957397    -0.695250
 H    -1.879927    -4.895153    -0.269878
 H    -2.310704    -3.225011    -0.705668
 H    -1.200520    -4.162760    -1.737269
 C     0.877654    -4.438061     0.044991
 H     1.776765    -4.050481     0.543367
 H     0.603433    -5.389266     0.529130
 H     1.150795    -4.667287    -0.993643
 H     0.978742    -0.485159    -1.988277
 C     1.607239    -2.458594    -2.553079
 H     2.004892    -2.083121    -3.510189
 H     2.449998    -2.563287    -1.855214
 H     1.190004    -3.458305    -2.746482
 C    -0.678715    -1.408559    -2.921486
 H    -1.423043    -0.709975    -2.506977
 H    -0.384905    -1.042355    -3.918117
 H    -1.171889    -2.381965    -3.057799
