  96
scf done:    -2004.311744
 C     0.928880    -3.011603    -1.608545
 H     0.757998    -2.976330    -2.698386
 H     2.022257    -2.891416    -1.503829
 C     0.538575    -4.392281    -1.085300
 H    -0.528648    -4.604505    -1.256661
 H     1.115066    -5.204660    -1.567167
 H     0.699810    -4.486478     0.002645
Ir    -0.208259    -1.477628    -0.615270
 C     2.671380    -2.301100     1.261963
 C     3.052491    -0.374608    -0.939672
 C     1.917278     0.574841     1.505882
 C    -1.578580    -0.571777     2.468308
 C    -1.358833     1.724846     0.646598
 C    -3.362102    -0.253451     0.118240
 P    -1.599308    -0.107848     0.657945
 P     1.863829    -0.881523     0.370905
 C    -1.539810    -1.856798    -1.839638
 O    -2.310150    -2.040582    -2.680764
 H     2.457521    -3.138448     0.577210
 C     4.180783    -2.231219     1.457234
 H     4.539835    -3.175997     1.897022
 H     4.715306    -2.092738     0.506458
 H     4.480795    -1.420563     2.136066
 C     1.918917    -2.568776     2.561106
 H     0.837458    -2.668973     2.378680
 H     2.270632    -3.504833     3.022914
 H     2.071302    -1.762630     3.297400
 H     3.242739    -1.269800    -1.552534
 H     4.008116    -0.091982    -0.472592
 C     2.498188     0.742768    -1.814318
 H     1.511008     0.418772    -2.188214
 H     2.313465     1.647356    -1.205436
 C     3.395260     1.130998    -2.991193
 H     3.575270     0.214756    -3.584301
 C     2.682168     2.136510    -3.887359
 H     1.714877     1.745504    -4.238798
 H     3.287113     2.388250    -4.772156
 H     2.485363     3.074983    -3.342349
 C     4.746420     1.673383    -2.537005
 H     5.366228     1.969738    -3.397393
 H     5.320655     0.933111    -1.959602
 H     4.613299     2.565465    -1.900748
 H     1.185647     0.394543     2.308968
 H     1.478686     1.371941     0.887083
 C     3.241681     1.038201     2.095970
 H     3.552723     0.339028     2.888678
 H     4.040631     1.009556     1.334666
 C     3.192918     2.453650     2.682999
 H     2.331004     2.498343     3.375821
 C     4.456875     2.737711     3.486370
 H     4.591737     2.007045     4.299056
 H     4.430868     3.741950     3.936590
 H     5.349470     2.686591     2.840586
 C     2.989257     3.515074     1.606674
 H     2.953384     4.523661     2.045852
 H     2.053502     3.373071     1.044956
 H     3.819039     3.496714     0.879960
 H    -0.498573    -0.692502     2.658547
 C    -2.114569     0.454087     3.458879
 H    -1.987144     0.082214     4.489022
 H    -1.582950     1.414543     3.390200
 H    -3.185896     0.652802     3.313787
 C    -2.215011    -1.947530     2.637938
 H    -1.818070    -2.657912     1.894903
 H    -2.011069    -2.347571     3.644056
 H    -3.309062    -1.905079     2.516279
 H    -0.429860     1.931175     1.200638
 H    -2.169733     2.214849     1.206977
 C    -1.254055     2.260542    -0.775626
 H    -0.585505     1.594871    -1.349167
 H    -2.239912     2.192312    -1.271168
 C    -0.749943     3.700488    -0.884106
 H     0.254052     3.731909    -0.417318
 C    -0.595669     4.095582    -2.347600
 H     0.063239     3.396216    -2.883860
 H    -0.173279     5.107281    -2.450726
 H    -1.572948     4.089126    -2.858464
 C    -1.641060     4.688763    -0.140383
 H    -1.272138     5.720203    -0.252251
 H    -1.692432     4.471374     0.937228
 H    -2.670196     4.658895    -0.537382
 H    -3.586863    -1.332108     0.105923
 H    -3.324585     0.037049    -0.943661
 C    -4.454855     0.516223     0.844755
 H    -4.625404     0.063780     1.835260
 H    -4.139360     1.557251     1.037137
 C    -5.790534     0.558291     0.093065
 H    -6.059185    -0.482559    -0.167973
 C    -6.887000     1.116228     0.993231
 H    -6.999205     0.518754     1.911539
 H    -7.860962     1.131164     0.480079
 H    -6.655478     2.151541     1.295587
 C    -5.695273     1.358986    -1.201455
 H    -6.662228     1.378782    -1.727151
 H    -4.954323     0.941204    -1.899289
 H    -5.408442     2.403838    -0.992144
