  88
scf done:    -2299.305312
 C    -1.455105    -2.355324    -2.092377
 H    -1.463193    -3.387684    -1.696270
 H    -2.498622    -2.014222    -1.976339
 C    -1.121818    -2.402337    -3.580603
 H    -0.125800    -2.834246    -3.767862
 H    -1.849456    -3.011208    -4.148832
 H    -1.117750    -1.400302    -4.038850
Ir    -0.088539    -1.238934    -0.847872
 C    -2.446381     0.877430    -2.264737
 C    -3.361579    -0.521258     0.191329
 C    -1.714882     1.803076     0.436636
 C     0.897275     0.450838     2.224529
 C     2.937761    -1.071080     0.898368
 C     2.108808     1.403294    -0.277807
 P     1.425138    -0.105624     0.514455
 P    -1.904406     0.282655    -0.574413
 C     1.174829    -2.476418    -1.392660
 O     1.939346    -3.238950    -1.796076
 H    -2.859131    -0.055665    -2.683672
 C    -3.521069     1.953992    -2.288046
 H    -3.713209     2.257904    -3.329703
 H    -4.474993     1.603851    -1.872809
 H    -3.208304     2.852238    -1.732888
 C    -1.234494     1.262242    -3.111839
 H    -0.413725     0.540137    -2.974764
 H    -1.516999     1.280506    -4.176258
 H    -0.855652     2.263858    -2.859927
 C    -3.219083    -1.838814     0.643339
 H    -2.255623    -2.339572     0.498901
 C    -4.589055     0.123562     0.398758
 H    -4.718751     1.167577     0.109111
 C    -4.277456    -2.496886     1.263241
 H    -4.139076    -3.524911     1.609036
 C    -5.644545    -0.541933     1.013442
 H    -6.592211    -0.017881     1.166441
 C    -5.511749    -1.866294     1.450770
 C    -6.664164    -2.589737     2.081953
 H    -6.319769    -3.365448     2.780819
 H    -7.324807    -1.900560     2.627738
 H    -7.277034    -3.090340     1.313639
 C    -0.897383     2.846129    -0.018722
 H    -0.395249     2.772210    -0.983769
 C    -2.280028     1.921162     1.713573
 H    -2.905083     1.119278     2.109445
 C    -0.673670     3.972851     0.766581
 H    -0.024389     4.764374     0.383540
 C    -2.035517     3.041912     2.501635
 H    -2.477954     3.098651     3.500208
 C    -1.234035     4.093485     2.042556
 C    -0.999880     5.315551     2.880349
 H    -1.768512     6.081164     2.681318
 H    -1.041702     5.083019     3.954254
 H    -0.022831     5.771529     2.664095
 H     0.377070     1.405281     2.038386
 C    -0.110008    -0.537123     2.800366
 H    -0.514352    -0.155706     3.751850
 H    -0.948154    -0.715874     2.112770
 H     0.362570    -1.511122     3.003831
 C     2.046922     0.677651     3.200337
 H     2.839744     1.323011     2.797346
 H     1.666173     1.143407     4.124086
 H     2.521320    -0.276466     3.474788
 C     2.784942    -2.391980     1.340174
 H     1.783888    -2.830561     1.382576
 C     4.228050    -0.541693     0.813046
 H     4.373802     0.484447     0.467444
 C     3.891603    -3.152197     1.700312
 H     3.747772    -4.180707     2.043376
 C     5.334035    -1.314182     1.162068
 H     6.335854    -0.882563     1.081770
 C     5.188411    -2.629478     1.613708
 C     6.381647    -3.471043     1.959482
 H     6.188314    -4.101866     2.839986
 H     6.639425    -4.146783     1.126891
 H     7.266183    -2.852277     2.167475
 C     2.363868     2.615650     0.368081
 H     2.175984     2.725133     1.436492
 C     2.337252     1.329362    -1.660431
 H     2.110955     0.393594    -2.179946
 C     2.831896     3.718577    -0.346173
 H     3.015840     4.659009     0.181489
 C     2.808813     2.428956    -2.366596
 H     2.973136     2.344296    -3.444651
 C     3.063794     3.648280    -1.722481
 C     3.576269     4.829758    -2.492356
 H     4.603679     4.652267    -2.849900
 H     2.957060     5.027546    -3.381022
 H     3.589643     5.739818    -1.876354
