  74
scf done:    -1840.427829
 C     1.902169    -2.543601     0.657708
 H     1.585334    -3.598525     0.627234
 H     2.790752    -2.503525     0.007019
 C     2.278267    -2.194049     2.093463
 H     1.412445    -2.272110     2.772282
 H     3.055383    -2.870537     2.495852
 H     2.664800    -1.165238     2.192712
Ir     0.306984    -1.276495     0.016504
 O     2.085656     1.604325     1.037645
 C     3.580804    -0.001599    -0.441053
 C     1.309784     1.637789    -1.564702
 O    -1.626603     1.467176    -0.648838
 C    -3.017748    -0.925687    -1.102427
 C    -2.372846     0.117276     1.672505
 P    -1.703441    -0.087561    -0.063930
 P     1.815737     0.502194    -0.185570
 C    -0.380113    -2.783745    -0.805520
 O    -0.678112    -3.664788    -1.493557
 C     0.992857     2.074350     1.819048
 H     0.062354     1.960584     1.234128
 C     1.223079     3.548297     2.082417
 H     1.285803     4.106488     1.136717
 H     2.167562     3.694514     2.628656
 H     0.404639     3.971437     2.684160
 C     0.879799     1.251967     3.087412
 H     0.713611     0.193200     2.841546
 H     1.808509     1.326401     3.673451
 H     0.043500     1.600583     3.713039
 H     3.701364    -0.775362     0.333358
 C     3.757999    -0.673681    -1.798440
 H     4.716757    -1.214878    -1.828555
 H     2.953946    -1.396817    -2.003894
 H     3.772086     0.065207    -2.614086
 C     4.631415     1.069392    -0.170882
 H     4.461843     1.560105     0.796105
 H     5.628206     0.599375    -0.151570
 H     4.649679     1.844562    -0.948707
 H     0.399102     2.061916    -1.111088
 C     2.277557     2.773755    -1.862410
 H     1.775552     3.539858    -2.476474
 H     2.634834     3.256858    -0.941682
 H     3.153444     2.428479    -2.432268
 C     0.852799     0.900443    -2.817795
 H     0.206920     0.048541    -2.554905
 H     0.282182     1.583542    -3.467560
 H     1.700609     0.514779    -3.402760
 C    -2.544651     2.558668    -0.660835
 H    -3.572348     2.186568    -0.527567
 C    -2.432411     3.217235    -2.022773
 H    -2.652723     2.499726    -2.825862
 H    -1.409175     3.592416    -2.178075
 H    -3.129791     4.063923    -2.107997
 C    -2.217640     3.528002     0.460913
 H    -2.283326     3.045403     1.445985
 H    -1.198261     3.923533     0.340350
 H    -2.918520     4.376452     0.451069
 H    -2.411433    -1.243113    -1.968771
 C    -3.538767    -2.188494    -0.419568
 H    -4.026859    -2.837499    -1.163053
 H    -2.739572    -2.776676     0.050715
 H    -4.286209    -1.950176     0.351511
 C    -4.165757    -0.080531    -1.640196
 H    -3.811288     0.763974    -2.244745
 H    -4.795724    -0.704593    -2.294783
 H    -4.815929     0.306550    -0.841794
 H    -1.719560     0.928488     2.038591
 C    -3.822827     0.558422     1.844965
 H    -4.030598     0.728714     2.914107
 H    -4.061214     1.490670     1.316607
 H    -4.526164    -0.213395     1.501374
 C    -2.067313    -1.115470     2.523290
 H    -1.037857    -1.472493     2.355597
 H    -2.187399    -0.874497     3.591663
 H    -2.745733    -1.948897     2.291371
