  80
scf done:    -2442.946070
 C    -1.298726    -3.096391    -0.286230
 H    -1.554912    -3.540650     0.690569
 H    -2.267654    -2.764799    -0.695059
 C    -0.716412    -4.150892    -1.220269
 H     0.184587    -4.626138    -0.801415
 H    -1.442625    -4.957882    -1.428766
 H    -0.422094    -3.725015    -2.193342
Ir     0.078483    -1.467936     0.044788
 C    -2.694952    -0.244001    -1.874295
 O    -2.944283    -0.814029     0.826240
 O    -1.924723     1.405445     0.086053
 C     2.061833     1.331270     1.314322
 O     3.197851    -0.908238     0.176695
 O     2.212939     0.774000    -1.369725
 P     1.820779    -0.002501     0.061437
 P    -1.824912    -0.223773    -0.247974
 C     1.183284    -2.751125     0.859394
 O     1.763891    -3.514298     1.490060
 H    -3.346344    -1.129820    -1.772350
 C    -3.564509     0.972776    -2.162021
 H    -4.083659     0.825809    -3.122198
 H    -4.323523     1.139002    -1.385874
 H    -2.949515     1.879630    -2.241750
 C    -1.683468    -0.521369    -2.982534
 H    -1.036439    -1.378057    -2.737384
 H    -2.211134    -0.744187    -3.922631
 H    -1.037332     0.348581    -3.158686
 C    -4.284795    -0.527590     0.801718
 C    -4.768920     0.668374     1.334042
 H    -4.071956     1.388681     1.764446
 C    -5.160979    -1.477155     0.275298
 H    -4.754259    -2.416649    -0.104925
 C    -6.139351     0.918832     1.311511
 H    -6.519766     1.855203     1.726544
 C    -6.529024    -1.215070     0.257902
 H    -7.214765    -1.958255    -0.155802
 C    -7.022078    -0.014924     0.769096
 H    -8.094938     0.188644     0.753441
 C    -1.496537     1.992903     1.237438
 C    -1.293909     3.375834     1.193860
 H    -1.497073     3.906965     0.262250
 C    -1.276237     1.285067     2.423710
 H    -1.443710     0.207624     2.458687
 C    -0.842404     4.045278     2.327322
 H    -0.678244     5.124504     2.283841
 C    -0.830923     1.972138     3.551997
 H    -0.655241     1.414867     4.474987
 C    -0.603360     3.346179     3.511292
 H    -0.250284     3.872996     4.400123
 H     1.069717     1.815246     1.308431
 C     2.241441     0.680464     2.682853
 H     2.136253     1.438694     3.473162
 H     1.485327    -0.099716     2.860907
 H     3.238196     0.225670     2.777015
 C     3.114710     2.388634     1.009803
 H     3.002511     2.801009    -0.003061
 H     3.010403     3.218337     1.727276
 H     4.135143     1.991598     1.101446
 C     4.511301    -0.529708     0.236733
 C     5.254568    -0.978835     1.329883
 H     4.755313    -1.586542     2.087098
 C     5.122076     0.210364    -0.777674
 H     4.528951     0.535482    -1.631209
 C     6.605822    -0.657102     1.425626
 H     7.183209    -1.008733     2.284032
 C     6.473618     0.530234    -0.666463
 H     6.949532     1.116589    -1.456300
 C     7.219640     0.106161     0.432717
 H     8.278769     0.360928     0.510344
 C     1.392602     1.440410    -2.220394
 C     1.553173     1.210470    -3.589923
 H     2.285655     0.469142    -3.913947
 C     0.459586     2.374845    -1.770798
 H     0.350108     2.563921    -0.703084
 C     0.780787     1.920660    -4.503663
 H     0.909693     1.737470    -5.572996
 C    -0.316662     3.071953    -2.695148
 H    -1.048103     3.800594    -2.337085
 C    -0.160646     2.852609    -4.062160
 H    -0.769674     3.403633    -4.781593
