  70
scf done:    -2832.980010
 C    -2.041530    -2.071892    -2.403102
 H    -2.477916    -3.073817    -2.271335
 H    -2.869838    -1.369516    -2.212754
 C    -1.537416    -1.924370    -3.835670
 H    -0.716023    -2.624873    -4.055959
 H    -2.337800    -2.125729    -4.571058
 H    -1.151016    -0.913150    -4.043532
Ir    -0.437479    -1.743856    -1.024580
 O    -0.004735     1.149580    -2.765910
 O    -2.145666     1.123641    -1.585779
 O    -0.010976     1.339620    -0.199424
 O     2.253518    -2.723666     0.603358
 O     2.535129    -0.455010    -0.598834
 O     1.429844    -0.573768     1.631403
 P     1.428731    -1.395436     0.178299
 P    -0.641695     0.476368    -1.452621
 C    -0.778474    -3.436383    -0.278145
 O    -1.053570    -4.402146     0.276571
 C    -0.486778     2.295835    -3.454076
 H    -1.480453     2.098694    -3.880053
 H    -0.542013     3.172295    -2.792399
 H     0.228938     2.494192    -4.261769
 C    -3.217062     0.863954    -0.767596
 C    -4.482482     1.031348    -1.329125
 H    -4.559722     1.320931    -2.378340
 C    -3.077121     0.483184     0.567619
 H    -2.088137     0.343598     1.006279
 C    -5.619141     0.825495    -0.555013
 H    -6.620524     0.948853    -0.970807
 C    -4.217036     0.277137     1.343652
 H    -4.139065    -0.006068     2.393940
 C    -5.471580     0.450036     0.775687
 F    -6.558971     0.255552     1.521112
 C     0.208074     2.692961    -0.206490
 C    -0.792487     3.565972     0.218689
 H    -1.757427     3.164502     0.534087
 C     1.455882     3.170338    -0.607074
 H     2.213364     2.455736    -0.933344
 C    -0.544195     4.936350     0.235088
 H    -1.304110     5.648406     0.561675
 C     1.704910     4.539642    -0.591206
 H     2.669529     4.946907    -0.899157
 C     0.700113     5.405364    -0.171916
 F     0.936677     6.715332    -0.156589
 C     3.197623    -2.848380     1.655316
 H     4.208676    -2.597256     1.302794
 H     2.939054    -2.194953     2.501151
 H     3.177011    -3.896780     1.982083
 C     3.825713    -0.233509    -0.189011
 C     4.859450    -0.904441    -0.842237
 H     4.611388    -1.606621    -1.639917
 C     4.103231     0.678509     0.830031
 H     3.277999     1.189289     1.326045
 C     6.180255    -0.676000    -0.466874
 H     7.009558    -1.187004    -0.959170
 C     5.423609     0.908470     1.207655
 H     5.672494     1.612997     2.003258
 C     6.445581     0.227273     0.556650
 F     7.708123     0.447197     0.918831
 C     0.314444    -0.456852     2.411396
 C    -0.462066    -1.567293     2.746958
 H    -0.180411    -2.559432     2.390856
 C    -0.029311     0.810528     2.882783
 H     0.585963     1.666188     2.601773
 C    -1.600150    -1.406765     3.533214
 H    -2.231892    -2.257306     3.794309
 C    -1.159132     0.973862     3.678804
 H    -1.456672     1.955942     4.050113
 C    -1.935097    -0.137965     3.985277
 F    -3.045372     0.021520     4.711082
