  96
scf done:    -2376.930747
 C    -0.998605     1.994657    -2.633565
 H    -1.813469     2.737452    -2.595848
 H    -0.061043     2.571140    -2.676308
 C    -1.106958     1.167028    -3.911008
 H    -2.055107     0.607863    -3.964741
 H    -1.050445     1.801098    -4.815037
 H    -0.291619     0.429338    -3.987279
Ir    -1.061853     0.640360    -0.965358
 O     1.883618     0.890749     0.827571
 O     2.041147     1.637045    -1.540368
 O     0.864639     3.025584     0.269722
 O    -1.247807    -1.142879     1.988834
 O    -1.925908    -2.448060    -0.007115
 O     0.496821    -1.888799     0.409569
 P    -0.957796    -1.178972     0.378773
 P     0.955608     1.518108    -0.353268
 C    -2.929263     0.681777    -1.117643
 O    -4.066215     0.870593    -1.101478
 C     1.465363     0.975609     2.185013
 H     1.602941     2.015232     2.527532
 H     0.393781     0.729071     2.263967
 C     2.273361     0.018926     3.027957
 H     1.926403     0.128117     4.070519
 H     2.029176    -1.010995     2.724662
 C     3.776341     0.242241     2.952213
 H     3.998735     1.300364     3.178836
 H     4.102828     0.081613     1.912181
 C     4.565196    -0.659972     3.886707
 H     4.287798    -0.490524     4.939700
 H     4.379374    -1.723520     3.666748
 H     5.648640    -0.488961     3.796133
 C     3.197786     2.472939    -1.507809
 H     3.409612     2.701341    -2.564061
 H     2.951030     3.417296    -0.997081
 C     4.394121     1.810833    -0.856350
 H     5.244882     2.508800    -0.956492
 H     4.203411     1.700009     0.222419
 C     4.758141     0.459946    -1.453281
 H     4.904639     0.567780    -2.542798
 H     3.901542    -0.222588    -1.329998
 C     6.001587    -0.145662    -0.823840
 H     6.877912     0.510415    -0.951725
 H     5.863561    -0.300409     0.258528
 H     6.247497    -1.121110    -1.269076
 C    -0.078097     4.036489    -0.077374
 H     0.404579     4.981308     0.220923
 H    -0.224440     4.063233    -1.167460
 C    -1.409136     3.873313     0.625322
 H    -2.055593     4.709267     0.304197
 H    -1.879548     2.946576     0.250568
 C    -1.327004     3.828025     2.142967
 H    -0.813002     4.731860     2.516627
 H    -0.691193     2.977658     2.438550
 C    -2.692077     3.701871     2.799985
 H    -3.333137     4.565909     2.562527
 H    -3.220826     2.801364     2.447821
 H    -2.613447     3.636544     3.895903
 C    -2.259364    -0.287305     2.506555
 H    -2.048139    -0.205545     3.584176
 H    -2.148895     0.716665     2.057557
 C    -3.661257    -0.814844     2.273311
 H    -4.365509    -0.109917     2.750148
 H    -3.889853    -0.778143     1.194410
 C    -3.886178    -2.226034     2.794253
 H    -3.694223    -2.248454     3.881903
 H    -3.134914    -2.886811     2.334046
 C    -5.282654    -2.748700     2.501779
 H    -6.058221    -2.113091     2.959302
 H    -5.476228    -2.771577     1.417031
 H    -5.421669    -3.771015     2.884889
 C    -2.591745    -2.606817    -1.254509
 H    -3.092668    -3.585088    -1.181916
 H    -3.380909    -1.842354    -1.349349
 C    -1.674126    -2.558178    -2.459198
 H    -2.303623    -2.623711    -3.364046
 H    -1.204013    -1.555415    -2.493821
 C    -0.600391    -3.634070    -2.483216
 H    -1.075761    -4.629240    -2.545081
 H    -0.059061    -3.612327    -1.525739
 C     0.390087    -3.451887    -3.620956
 H    -0.111887    -3.472387    -4.601755
 H     0.907919    -2.482901    -3.535897
 H     1.156942    -4.241603    -3.622483
 C     0.736286    -3.119735     1.089498
 H     0.819266    -2.916413     2.170778
 H    -0.121461    -3.794436     0.938587
 C     2.006547    -3.733794     0.547329
 H     2.133610    -4.721785     1.024045
 H     1.872635    -3.926923    -0.531138
 C     3.251708    -2.887099     0.763408
 H     3.408498    -2.751046     1.847475
 H     3.071608    -1.878788     0.355918
 C     4.496323    -3.495464     0.140289
 H     4.686156    -4.509576     0.528292
 H     4.394529    -3.575957    -0.954166
 H     5.389577    -2.887879     0.345503
