  90
scf done:    -2449.691998
 C    -0.333102     0.982806    -2.878277
 H    -0.457118     1.891796    -3.488960
 H     0.751647     0.771496    -2.923810
 C    -1.095391    -0.173084    -3.520673
 H    -2.177822     0.029071    -3.556946
 H    -0.762684    -0.375419    -4.556126
 H    -0.978799    -1.114287    -2.955979
Ir    -1.085235     1.283321    -0.884048
 O     1.106528     0.247027     1.441499
 C     1.471243    -1.196016    -0.919029
 C     2.249412     1.688202    -0.636254
 O    -1.521993     2.344300     2.263855
 C    -3.890911     1.424092     1.240825
 C    -1.802409    -0.372475     2.126351
 P    -2.040890     1.205180     1.176772
 P     0.950631     0.433519    -0.191613
 C    -2.262343     2.555883    -1.551384
 O    -2.893228     3.445011    -1.932790
 C     2.113304    -0.496825     2.088196
 H     1.907404    -1.577518     2.010741
 H     3.117443    -0.284868     1.693725
 H     2.092469    -0.212817     3.149967
 H     1.096107    -1.951037    -0.211147
 H     0.836696    -1.284136    -1.812506
 C     2.906033    -1.426322    -1.284464
 C     3.395394    -0.980707    -2.520921
 H     2.716824    -0.486855    -3.222255
 C     3.784967    -2.091257    -0.425860
 H     3.411221    -2.469251     0.529023
 C     4.729630    -1.175767    -2.863145
 H     5.098564    -0.826788    -3.830600
 C     5.131796    -2.290821    -0.748501
 C     6.046859    -2.977221     0.223507
 H     6.208365    -2.352319     1.117093
 H     5.622060    -3.932526     0.568456
 H     7.029989    -3.183410    -0.222103
 C     5.596514    -1.819466    -1.980176
 H     6.644249    -1.968229    -2.255088
 H     2.605311     1.440841    -1.646313
 H     1.675703     2.623323    -0.711628
 C     3.380915     1.834004     0.334245
 C     3.176407     2.515016     1.540425
 H     2.197944     2.953963     1.750851
 C     4.635739     1.269544     0.080302
 H     4.800440     0.737945    -0.860236
 C     4.203369     2.598885     2.476308
 H     4.035988     3.123387     3.420507
 C     5.678938     1.352037     1.008006
 C     7.026872     0.766497     0.699093
 H     6.963157     0.026853    -0.111251
 H     7.732287     1.550842     0.377714
 H     7.467695     0.278479     1.581610
 C     5.442274     2.015715     2.217913
 H     6.241922     2.084159     2.961080
 C    -1.987401     2.446541     3.583586
 H    -3.033928     2.794698     3.632140
 H    -1.910115     1.492658     4.134853
 H    -1.358890     3.187856     4.097573
 H    -4.212382     1.454816     2.293529
 H    -4.093962     2.408367     0.791845
 C    -4.594660     0.323003     0.506284
 C    -4.801081     0.395320    -0.877508
 H    -4.534366     1.303259    -1.419195
 C    -4.973144    -0.846185     1.175506
 H    -4.841528    -0.907028     2.260221
 C    -5.339534    -0.690306    -1.562620
 H    -5.495546    -0.623027    -2.641974
 C    -5.497180    -1.952663     0.500768
 C    -5.802495    -3.222175     1.239676
 H    -4.895394    -3.844971     1.320117
 H    -6.153958    -3.022054     2.262571
 H    -6.568023    -3.818966     0.723397
 C    -5.673423    -1.860130    -0.883510
 H    -6.082482    -2.712309    -1.433053
 H    -0.954783    -0.151357     2.791500
 H    -2.683701    -0.555638     2.763223
 C    -1.476925    -1.607683     1.328251
 C    -1.983092    -1.845841     0.045382
 H    -2.627637    -1.111040    -0.441199
 C    -0.642349    -2.576731     1.901211
 H    -0.244770    -2.400965     2.905530
 C    -1.658567    -3.023065    -0.629044
 H    -2.066564    -3.193463    -1.628094
 C    -0.294371    -3.754387     1.234035
 C     0.647283    -4.746571     1.854161
 H     0.795915    -4.548606     2.925250
 H     0.276274    -5.777145     1.746407
 H     1.636731    -4.710218     1.367464
 C    -0.821186    -3.968829    -0.046606
 H    -0.565709    -4.882585    -0.590447
