  38
scf done:    -1369.046022
 C    -2.612703     1.024530     0.219174
 H    -3.430444     0.485886     0.724849
 H    -2.426931     1.901881     0.865976
 C    -3.099444     1.484179    -1.152861
 H    -3.373907     0.627907    -1.788998
 H    -3.990173     2.137165    -1.085751
 H    -2.330606     2.046720    -1.708286
Ir    -0.861996    -0.208496     0.045979
 O     1.829085     1.655766    -0.728519
 C    -0.194827     3.364618    -0.168937
 C     1.071539     1.871873     1.919696
 O     2.268920    -0.998403     0.743308
 C     0.930533    -3.247173    -0.020940
 C     1.788617    -1.337864    -1.944685
 P     1.029222    -1.439670    -0.284098
 P     0.461595     1.704846     0.211824
 C    -1.946868    -1.686249     0.357999
 O    -2.594920    -2.599799     0.627797
 C     2.955423     2.455717    -0.482096
 H     2.706387     3.528921    -0.403363
 H     3.481234     2.147036     0.437440
 H     3.641692     2.328946    -1.331771
 H    -0.428976     3.416236    -1.240972
 H    -1.124380     3.521858     0.395490
 H     0.522141     4.156885     0.091142
 H     0.193543     1.905267     2.580602
 H     1.645945     0.962917     2.147732
 H     1.682822     2.773489     2.075490
 C     3.593388    -1.423669     0.570392
 H     3.678886    -2.518824     0.452833
 H     4.070302    -0.941801    -0.301105
 H     4.154969    -1.137525     1.471937
 H     0.590299    -3.437535     1.006641
 H     0.177904    -3.654735    -0.712057
 H     1.887780    -3.760930    -0.195279
 H     1.027317    -1.655118    -2.672198
 H     2.035039    -0.284097    -2.134232
 H     2.681944    -1.970254    -2.059530
