 104
scf done:    -2233.259937
 C    -1.793370    -2.760119    -1.630792
 H    -1.776764    -3.821890    -1.333961
 H    -2.770134    -2.393162    -1.268349
 C    -1.749698    -2.661883    -3.153497
 H    -0.822019    -3.093941    -3.560634
 H    -2.594780    -3.190685    -3.633679
 H    -1.783479    -1.616684    -3.507177
Ir    -0.112360    -1.687128    -0.809532
 O    -0.894038     1.494938    -0.012099
 C    -2.982757     0.403067    -1.415378
 C    -2.367399    -0.339120     1.371269
 O     1.970389     0.254068     1.148690
 C     3.331233    -1.337701    -0.567842
 C     1.931886     1.076285    -1.391984
 P     1.746741    -0.428286    -0.352868
 P    -1.599631     0.010532    -0.259216
 C     0.793365    -3.308515    -0.736814
 O     1.303710    -4.328821    -0.565661
 C    -1.597763     2.646068     0.406206
 H    -2.381907     2.907641    -0.328356
 H    -2.101819     2.461678     1.373297
 C    -0.621904     3.793132     0.543354
 H     0.177861     3.491467     1.239464
 H    -0.134062     3.958761    -0.431496
 C    -1.274241     5.077739     1.030651
 H    -1.769217     4.890560     2.000378
 H    -2.079924     5.370730     0.334072
 C    -0.284048     6.221762     1.177857
 H     0.511218     5.967307     1.896828
 H     0.204203     6.452886     0.217787
 H    -0.773669     7.140577     1.533679
 H    -3.095023    -0.480502    -2.062026
 H    -2.570920     1.196726    -2.060883
 C    -4.336605     0.790602    -0.834448
 H    -4.711548    -0.041373    -0.215863
 H    -4.241938     1.653236    -0.151486
 C    -5.395203     1.123184    -1.890396
 H    -5.451718     0.262504    -2.583007
 C    -6.761033     1.289700    -1.234395
 H    -7.053782     0.386345    -0.676943
 H    -7.543665     1.492705    -1.981487
 H    -6.754272     2.132981    -0.523384
 C    -5.030133     2.359703    -2.704693
 H    -5.805420     2.583959    -3.453222
 H    -4.079760     2.238453    -3.245665
 H    -4.935485     3.243774    -2.050996
 H    -3.140653     0.413547     1.595558
 H    -1.539846    -0.170890     2.075772
 C    -2.920457    -1.749292     1.523407
 H    -3.751711    -1.901957     0.814517
 H    -2.138165    -2.469025     1.224553
 C    -3.411159    -2.081480     2.934610
 H    -4.161049    -1.319654     3.222691
 C    -4.098982    -3.442054     2.939290
 H    -4.941229    -3.470341     2.230548
 H    -4.488732    -3.693249     3.937879
 H    -3.392462    -4.235928     2.645937
 C    -2.282843    -2.043067     3.960118
 H    -2.648156    -2.316085     4.962100
 H    -1.824145    -1.046029     4.041256
 H    -1.486047    -2.755176     3.687401
 C     1.753724    -0.516178     2.312418
 H     0.830912    -1.118040     2.199408
 H     2.589306    -1.226456     2.459182
 C     1.662591     0.434850     3.487878
 H     1.668891    -0.146598     4.425698
 H     2.580613     1.048135     3.492931
 C     0.440249     1.341325     3.423415
 H    -0.458650     0.749299     3.668411
 H     0.315817     1.666334     2.378853
 C     0.517801     2.549267     4.341009
 H     0.639287     2.252705     5.395464
 H     1.375969     3.189750     4.079857
 H    -0.390315     3.168807     4.273861
 H     3.305770    -1.750351    -1.591352
 H     3.244618    -2.211223     0.098993
 C     4.616624    -0.570807    -0.302145
 H     4.745690     0.201281    -1.078766
 H     4.527547    -0.027509     0.655461
 C     5.879442    -1.437566    -0.265842
 H     5.913501    -2.019077    -1.206516
 C     7.121662    -0.555297    -0.213625
 H     7.165016     0.131945    -1.073136
 H     8.044202    -1.156329    -0.215515
 H     7.126000     0.058137     0.703059
 C     5.868786    -2.424426     0.896775
 H     6.787012    -3.031640     0.910011
 H     5.018431    -3.120941     0.847387
 H     5.809587    -1.889254     1.859888
 H     0.908719     1.353712    -1.685744
 H     2.444122     0.732377    -2.306246
 C     2.618825     2.281952    -0.764235
 H     2.102874     2.516505     0.177821
 H     3.656585     2.040236    -0.481635
 C     2.626883     3.523343    -1.659217
 H     1.581586     3.715509    -1.969028
 C     3.111998     4.736291    -0.873656
 H     2.488187     4.913984     0.016188
 H     3.093712     5.650345    -1.487802
 H     4.148837     4.588901    -0.527948
 C     3.457334     3.325082    -2.922547
 H     3.451271     4.229334    -3.550850
 H     3.082930     2.494019    -3.539025
 H     4.507897     3.105425    -2.666736
