  84
scf done:    -2219.817006
 C     1.846765    -2.423848    -0.808422
 H     1.528134    -3.241231    -1.479201
 H     2.516445    -1.783428    -1.403283
 C     2.624738    -3.006448     0.365361
 H     2.024224    -3.724767     0.946663
 H     3.536687    -3.538468     0.036528
 H     2.946256    -2.218748     1.064137
Ir     0.070651    -1.327332    -0.307531
 O     2.951347     0.288253    -0.113420
 O     1.257786     1.564059    -1.541156
 O     1.107660     1.627918     0.957194
 O    -2.180911     1.315249    -0.023097
 O    -3.129503    -0.669506    -1.064853
 O    -2.597661    -0.615619     1.441726
 P    -1.931700    -0.300143    -0.002800
 P     1.355222     0.569506    -0.259302
 C    -0.607509    -2.960328     0.313269
 O    -0.947188    -3.932158     0.825872
 C     3.914725     1.036307     0.615498
 H     4.451711     1.694664    -0.091188
 H     3.409700     1.676021     1.354922
 C     4.884198     0.085527     1.280744
 H     5.589185     0.684540     1.884213
 H     4.325098    -0.547387     1.991338
 C     5.645905    -0.792145     0.297751
 H     6.251549    -0.148218    -0.365185
 H     4.917869    -1.302852    -0.352187
 C     6.534161    -1.818595     0.979593
 H     7.277287    -1.339521     1.637940
 H     5.936164    -2.505660     1.599515
 H     7.082937    -2.428619     0.246404
 C     2.166089     2.641964    -1.814814
 H     2.604983     2.985125    -0.861937
 C     1.359372     3.774939    -2.413236
 H     0.593955     4.127938    -1.709045
 H     0.858010     3.438423    -3.333535
 H     2.015852     4.620897    -2.665550
 C     3.256501     2.143522    -2.743026
 H     3.787831     1.290550    -2.299211
 H     2.815039     1.811552    -3.694894
 H     3.981897     2.943277    -2.955486
 C     0.478520     1.292147     2.209677
 H    -0.555794     0.984600     1.988783
 C     0.462081     2.565695     3.024917
 H    -0.038502     3.373362     2.474925
 H     1.487653     2.888968     3.262529
 H    -0.076087     2.401109     3.969915
 C     1.188107     0.150658     2.910200
 H     1.167058    -0.757222     2.285731
 H     2.231637     0.412289     3.145461
 H     0.671263    -0.082639     3.852829
 C    -2.042977     2.063247    -1.225341
 H    -1.003865     1.985819    -1.584471
 H    -2.707632     1.638989    -1.995471
 C    -2.402065     3.505536    -0.945048
 H    -2.212403     4.078735    -1.870001
 H    -3.485661     3.585041    -0.748914
 C    -1.629755     4.113650     0.216887
 H    -0.553139     3.909536     0.087037
 H    -1.914320     3.580083     1.137527
 C    -1.867569     5.604438     0.384289
 H    -1.540602     6.166571    -0.505810
 H    -2.936621     5.825128     0.535626
 H    -1.320473     6.007590     1.250242
 C    -3.201789    -1.924544    -1.749729
 H    -2.887719    -2.726350    -1.057424
 C    -2.275210    -1.915784    -2.948600
 H    -1.234038    -1.754282    -2.616522
 H    -2.555019    -1.108654    -3.643363
 H    -2.322621    -2.875257    -3.485042
 C    -4.656769    -2.134535    -2.110781
 H    -5.285240    -2.130822    -1.208354
 H    -5.004839    -1.329483    -2.776015
 H    -4.791244    -3.096548    -2.626799
 C    -3.898814    -0.130389     1.812283
 H    -4.376471     0.303706     0.918551
 C    -3.726403     0.946428     2.863347
 H    -3.138749     1.780607     2.455368
 H    -3.201795     0.541547     3.742625
 H    -4.704079     1.333067     3.188742
 C    -4.705711    -1.320066     2.286134
 H    -4.792502    -2.068467     1.485111
 H    -4.215584    -1.797134     3.148465
 H    -5.718149    -1.009716     2.585283
