  78
scf done:    -2292.550122
 C    -0.791546    -2.589050    -2.642871
 H    -0.163235    -3.457377    -2.899106
 H    -1.745464    -3.000196    -2.277057
 C    -1.036606    -1.758371    -3.898379
 H    -0.104638    -1.325904    -4.296749
 H    -1.487483    -2.360883    -4.709468
 H    -1.725193    -0.920270    -3.704790
Ir     0.098407    -1.402579    -1.095844
 O    -3.241428    -1.230419    -1.482963
 C    -2.548479    -0.958556     1.166212
 C    -2.274004     1.191519    -0.758907
 O     0.242089     0.249300     1.810794
 C     2.698143    -0.638906     1.106402
 C     1.544362     1.648410    -0.178833
 P     1.116878    -0.030572     0.421793
 P    -2.036716    -0.608367    -0.547200
 C     1.686295    -2.303891    -1.475669
 O     2.646889    -2.900781    -1.682987
 C    -4.605006    -1.021816    -1.206666
 H    -4.907010    -1.520247    -0.270821
 H    -4.851111     0.052017    -1.131375
 H    -5.172984    -1.456698    -2.040821
 C    -1.920654    -2.023883     1.818888
 H    -1.126394    -2.567378     1.296559
 C    -3.542201    -0.227828     1.827224
 H    -4.020703     0.616878     1.323611
 C    -2.290854    -2.346061     3.121548
 H    -1.797961    -3.172884     3.638629
 C    -3.921785    -0.540416     3.135850
 C    -5.001999     0.235092     3.833333
 H    -5.184797     1.201377     3.342140
 H    -5.953498    -0.322227     3.831463
 H    -4.743658     0.429280     4.885167
 C    -3.278417    -1.609971     3.772204
 H    -3.555998    -1.865956     4.799003
 C    -2.691275     1.675983    -2.004810
 H    -2.988979     0.976410    -2.789450
 C    -1.872382     2.092029     0.231251
 H    -1.525879     1.703957     1.190765
 C    -2.711798     3.048731    -2.236434
 H    -3.046848     3.430513    -3.204012
 C    -1.859463     3.470327    -0.001674
 C    -1.314014     4.406272     1.035590
 H    -1.701023     5.427634     0.910369
 H    -1.554071     4.066494     2.053802
 H    -0.214597     4.453032     0.952802
 C    -2.295888     3.936943    -1.245760
 H    -2.297926     5.012047    -1.445588
 C     0.639214     1.102531     2.853396
 H     1.670341     0.895397     3.188119
 H     0.570578     2.163385     2.557047
 H    -0.046435     0.923778     3.694625
 C     2.673305    -1.486421     2.220921
 H     1.724533    -1.694231     2.722105
 C     3.907107    -0.400880     0.448643
 H     3.923805     0.251383    -0.429633
 C     3.855999    -2.061643     2.674521
 H     3.842573    -2.715443     3.550105
 C     5.100090    -0.989058     0.884124
 C     6.378638    -0.759482     0.132647
 H     6.420606    -1.400761    -0.763303
 H     6.462969     0.282390    -0.210439
 H     7.258724    -0.992210     0.748748
 C     5.057875    -1.814563     2.012411
 H     5.980768    -2.276787     2.373436
 C     0.982200     2.059138    -1.390871
 H     0.359530     1.354778    -1.950576
 C     2.372617     2.532715     0.527990
 H     2.856921     2.202014     1.450656
 C     1.222133     3.345988    -1.868045
 H     0.776492     3.664957    -2.812812
 C     2.619310     3.827213     0.064023
 C     3.486868     4.776938     0.838821
 H     2.885663     5.577641     1.300598
 H     4.027848     4.261125     1.644568
 H     4.228781     5.265453     0.188839
 C     2.024966     4.221798    -1.143625
 H     2.209034     5.230376    -1.525536
