  90
scf done:    -2449.696545
 C     1.787670     2.663887     2.010734
 H     2.336735     2.242417     2.872634
 H     2.558606     2.860768     1.242576
 C     1.160328     3.997545     2.401723
 H     0.471884     3.893428     3.255855
 H     1.921268     4.747509     2.686694
 H     0.574066     4.433193     1.575821
Ir     0.367367     1.233143     1.284376
 O     2.618543     1.578406    -1.223126
 C     3.675482     0.231169     0.864122
 C     1.972724    -1.022167    -1.072602
 O    -1.092348    -0.554116    -1.185085
 C    -2.104811    -1.294689     1.347016
 C    -2.771793     1.307161     0.082747
 P    -1.374053     0.085773     0.309165
 P     2.114817     0.507776    -0.072987
 C    -0.669081     1.456927     2.819117
 O    -1.263577     1.435984     3.809424
 C     1.724050     2.606376    -1.666598
 H     1.105912     2.914095    -0.799109
 C     0.809666     2.071270    -2.751596
 H     0.160673     1.272009    -2.362607
 H     1.402370     1.670782    -3.588909
 H     0.161484     2.871934    -3.139518
 C     2.582444     3.767786    -2.115207
 H     3.219992     4.115082    -1.289489
 H     3.230873     3.465381    -2.952267
 H     1.954438     4.607601    -2.447173
 H     3.398821    -0.411643     1.712880
 H     3.944489     1.213189     1.279235
 C     4.787164    -0.371183     0.059711
 C     5.480711     0.390929    -0.890395
 H     5.210722     1.439427    -1.030611
 C     5.129004    -1.719691     0.216519
 H     4.593426    -2.326985     0.950566
 C     6.485529    -0.184021    -1.664147
 H     7.016823     0.424653    -2.400091
 C     6.134135    -2.295558    -0.558177
 H     6.385349    -3.350077    -0.420283
 C     6.815115    -1.529995    -1.502795
 H     7.604272    -1.979554    -2.110328
 H     2.838688    -1.027906    -1.751965
 H     1.062308    -0.878814    -1.675638
 C     1.885168    -2.316280    -0.312148
 C     1.326654    -2.400182     0.969334
 H     0.968548    -1.486792     1.461372
 C     2.349510    -3.494644    -0.910926
 H     2.808607    -3.443373    -1.901978
 C     1.223126    -3.627151     1.625000
 H     0.787513    -3.666687     2.626740
 C     2.242218    -4.721211    -0.261079
 H     2.610088    -5.627072    -0.749327
 C     1.674430    -4.793806     1.011285
 H     1.592733    -5.754858     1.524522
 C    -1.885315    -1.513823    -1.901541
 H    -2.903924    -1.513909    -1.483927
 C    -1.266881    -2.892924    -1.760589
 H    -1.126732    -3.184791    -0.710890
 H    -0.277622    -2.927001    -2.239927
 H    -1.906784    -3.645084    -2.246714
 C    -1.950373    -1.072929    -3.347971
 H    -2.426880    -0.089455    -3.438454
 H    -0.935966    -1.014330    -3.772522
 H    -2.530530    -1.796567    -3.939551
 H    -1.817854    -0.993285     2.365780
 H    -1.495920    -2.180370     1.112994
 C    -3.572144    -1.591845     1.307480
 C    -4.104694    -2.616893     0.514625
 H    -3.433398    -3.251821    -0.067180
 C    -4.457513    -0.834860     2.089168
 H    -4.057835    -0.065375     2.756457
 C    -5.478398    -2.843760     0.463955
 H    -5.870406    -3.647067    -0.164533
 C    -5.831816    -1.057329     2.038924
 H    -6.501237    -0.449659     2.652289
 C    -6.349870    -2.055941     1.215246
 H    -7.427218    -2.230890     1.172269
 H    -2.273641     2.278761     0.211734
 H    -3.441737     1.176424     0.945362
 C    -3.542057     1.299471    -1.201350
 C    -4.666294     0.484357    -1.387329
 H    -5.000922    -0.168404    -0.578172
 C    -3.150835     2.143449    -2.248380
 H    -2.281183     2.791520    -2.112541
 C    -5.364712     0.501924    -2.592532
 H    -6.238264    -0.142751    -2.716899
 C    -3.854004     2.169481    -3.451072
 H    -3.532832     2.838602    -4.253047
 C    -4.962035     1.342803    -3.630096
 H    -5.514458     1.358416    -4.572494
