  82
scf done:    -2593.205309
 C     1.778397    -0.285479     3.364528
 H     2.142790    -1.215405     3.831544
 H     2.677863     0.313204     3.146454
 C     0.896003     0.469230     4.354322
 H    -0.006326    -0.104852     4.621453
 H     1.429718     0.691222     5.298141
 H     0.564130     1.434167     3.939884
Ir     0.694103    -0.685502     1.556244
 O     1.843347     2.426224     1.958832
 C     2.954262     1.202310    -0.273744
 C     0.339080     2.411624    -0.272999
 O     0.200058    -0.586552    -1.706176
 C    -1.253572    -2.624140    -0.675249
 C    -2.116430     0.071686    -0.287498
 P    -0.605741    -0.958775    -0.301448
 P     1.457815     1.385937     0.736043
 C     0.446633    -2.414912     2.189927
 O     0.361787    -3.502502     2.558798
 C     2.469087     3.665924     1.747395
 H     3.517089     3.538842     1.428457
 H     1.936439     4.273233     0.993843
 H     2.456517     4.203692     2.705927
 C     3.515736     2.241501    -1.036306
 H     3.029157     3.218755    -1.077809
 C     3.590106    -0.042445    -0.270572
 H     3.134999    -0.851327     0.313972
 C     4.677500     2.038604    -1.762295
 H     5.123624     2.835754    -2.359777
 C     4.756819    -0.260240    -0.999069
 H     5.223308    -1.245175    -0.975891
 C     5.309803     0.784859    -1.748546
 O     6.430545     0.681107    -2.484086
 C     7.111962    -0.542974    -2.512813
 H     6.485688    -1.351009    -2.929757
 H     7.985839    -0.400577    -3.160865
 H     7.456911    -0.843491    -1.508118
 C     0.345524     2.416384    -1.675111
 H     1.115026     1.862614    -2.214555
 C    -0.676552     3.107276     0.389961
 H    -0.707260     3.100394     1.482756
 C    -0.634808     3.091675    -2.385340
 H    -0.644719     3.095849    -3.477071
 C    -1.665728     3.789814    -0.311433
 H    -2.453283     4.303844     0.238994
 C    -1.659321     3.770441    -1.710825
 O    -2.593935     4.356463    -2.480297
 C    -3.659545     5.028246    -1.861497
 H    -3.304543     5.868494    -1.239047
 H    -4.285367     5.428802    -2.669074
 H    -4.268709     4.348464    -1.241639
 C    -0.216050    -0.891060    -3.012359
 H    -1.000932    -1.665647    -3.033681
 H    -0.589515     0.015603    -3.518667
 H     0.652530    -1.267097    -3.575026
 C    -2.616218    -2.927757    -0.804940
 H    -3.361255    -2.135784    -0.700397
 C    -0.325580    -3.663384    -0.803668
 H     0.740214    -3.447428    -0.684576
 C    -3.033493    -4.226376    -1.058141
 H    -4.092063    -4.474835    -1.154638
 C    -0.729645    -4.968512    -1.067231
 H     0.022425    -5.752542    -1.156453
 C    -2.094931    -5.258214    -1.193195
 O    -2.589877    -6.485850    -1.437210
 C    -1.702778    -7.563074    -1.554710
 H    -1.118126    -7.715774    -0.630630
 H    -2.314418    -8.455269    -1.739094
 H    -1.003714    -7.429840    -2.399269
 C    -2.807843     0.519995    -1.423007
 H    -2.463492     0.256270    -2.422888
 C    -2.604752     0.436572     0.970789
 H    -2.050637     0.110194     1.858519
 C    -3.937277     1.314829    -1.300632
 H    -4.466864     1.683182    -2.181143
 C    -3.747512     1.222024     1.109910
 H    -4.091787     1.489527     2.109062
 C    -4.410787     1.678210    -0.033100
 O    -5.491211     2.490334    -0.013268
 C    -6.032421     2.860213     1.225281
 H    -5.312985     3.437007     1.833135
 H    -6.904533     3.491229     1.012247
 H    -6.360533     1.981005     1.806212
