  90
scf done:    -2224.154152
 C    -1.687200    -2.844384     0.384697
 H    -1.501030    -3.635988     1.128825
 H    -2.658666    -2.406844     0.664966
 C    -1.794004    -3.453997    -1.009328
 H    -0.863048    -3.963942    -1.306517
 H    -2.607107    -4.201870    -1.073667
 H    -2.005743    -2.682571    -1.767089
Ir    -0.080146    -1.419749     0.303088
 C    -1.535360     1.913934    -0.150465
 O    -2.865252    -0.287562    -1.080985
 O    -2.756748     0.150005     1.428200
 C     2.064344     1.514570     0.402240
 O     3.110881    -1.033578     0.169846
 O     1.952132     0.120586    -1.844948
 P     1.762740    -0.184763    -0.231084
 P    -1.802317     0.107341     0.094890
 C     0.976299    -2.697248     1.174575
 O     1.554021    -3.445713     1.827834
 H    -0.762969     2.138503     0.611293
 C    -2.732531     2.819098     0.140636
 H    -3.128583     2.608530     1.144337
 H    -3.543315     2.600001    -0.574349
 C    -2.343108     4.287535    -0.001018
 H    -3.214637     4.930338     0.203516
 H    -1.586110     4.537240     0.764970
 C    -1.776566     4.581170    -1.385707
 H    -1.478444     5.639056    -1.465851
 H    -2.569553     4.424048    -2.139590
 C    -0.596479     3.670893    -1.704125
 H     0.242807     3.916695    -1.028505
 H    -0.229324     3.853297    -2.727154
 C    -0.952541     2.197536    -1.534990
 H    -1.694573     1.899399    -2.295459
 H    -0.062816     1.575804    -1.713159
 C    -4.277143    -0.036456    -1.071462
 H    -4.509917     0.679831    -0.267211
 C    -5.002703    -1.334797    -0.784058
 H    -4.726700    -1.716354     0.208251
 H    -4.737656    -2.096823    -1.532224
 H    -6.092233    -1.181228    -0.806235
 C    -4.642929     0.560725    -2.414591
 H    -4.112381     1.509326    -2.583784
 H    -4.369122    -0.133158    -3.223824
 H    -5.724381     0.754602    -2.472642
 C    -2.368292    -0.390815     2.698574
 H    -1.579480    -1.143340     2.512693
 C    -3.587520    -1.051053     3.302316
 H    -3.945792    -1.864576     2.655688
 H    -4.401808    -0.320436     3.429639
 H    -3.345308    -1.476778     4.287304
 C    -1.798246     0.721264     3.555976
 H    -0.911325     1.162652     3.076869
 H    -2.543348     1.516851     3.714165
 H    -1.490221     0.332969     4.538350
 H     1.115005     2.011670     0.138507
 C     3.181521     2.341024    -0.231902
 H     3.056439     2.358193    -1.324951
 H     4.159203     1.875403    -0.030156
 C     3.186400     3.755916     0.342127
 H     4.015693     4.337409    -0.092430
 H     2.256580     4.271967     0.040762
 C     3.282707     3.745580     1.864393
 H     3.259235     4.774771     2.257848
 H     4.260224     3.323212     2.161282
 C     2.170361     2.910563     2.490869
 H     1.195829     3.392612     2.287669
 H     2.278701     2.883188     3.587167
 C     2.150482     1.493607     1.928625
 H     3.062462     0.954109     2.235876
 H     1.305007     0.915218     2.337762
 C     4.435083    -0.863082    -0.340059
 H     4.427672    -0.071174    -1.108275
 C     4.854766    -2.170878    -0.983098
 H     4.186558    -2.429358    -1.814052
 H     4.810483    -2.983590    -0.242217
 H     5.883046    -2.103106    -1.369194
 C     5.355037    -0.479771     0.803433
 H     5.055412     0.471573     1.264394
 H     5.326636    -1.257797     1.581209
 H     6.392004    -0.377877     0.449536
 C     1.171212    -0.585365    -2.820466
 H     0.133990    -0.652667    -2.437941
 C     1.688274    -1.993920    -3.029102
 H     1.678622    -2.550873    -2.080530
 H     2.712912    -1.979035    -3.431633
 H     1.043694    -2.531715    -3.740146
 C     1.198126     0.250832    -4.081077
 H     0.799870     1.258097    -3.892214
 H     2.230368     0.352846    -4.450256
 H     0.591817    -0.221091    -4.868119
