  50
scf done:    -1800.247439
 C    -3.364959    -1.074685    -1.049966
 H    -3.965417    -0.395659    -1.680398
 H    -2.918217    -1.787256    -1.768297
 C    -4.297224    -1.837189    -0.111644
 H    -4.859508    -1.153216     0.543761
 H    -5.041249    -2.444071    -0.660848
 H    -3.750642    -2.522596     0.556526
Ir    -1.876338     0.117660    -0.057110
 C     1.285124    -1.663195     0.080891
 C    -0.983146    -3.289857    -0.286549
 C    -0.054915    -1.700361    -2.474320
 C     1.318462     1.609911    -0.021903
 C    -0.789926     3.323601     0.739501
 C     0.153631     1.438113     2.617384
 P    -0.298323     1.553803     0.842707
 P    -0.380485    -1.603078    -0.678053
 C    -3.266095     1.228701     0.465313
 O    -4.147557     1.881294     0.821734
 C     2.474064    -1.632403    -0.653860
 H     2.452300    -1.563085    -1.742309
 C     1.358984    -1.740552     1.478339
 H     0.436633    -1.758493     2.066673
 C     3.710646    -1.665663    -0.013660
 H     4.644992    -1.623445    -0.576074
 C     2.586210    -1.781306     2.131665
 H     2.657346    -1.842266     3.219292
 C     3.750069    -1.737213     1.371683
 F     4.929238    -1.754880     1.989051
 H    -1.127579    -3.378569     0.798759
 H    -1.951783    -3.453689    -0.776826
 H    -0.255901    -4.043627    -0.621527
 H     0.535150    -2.590825    -2.737441
 H    -1.026282    -1.739249    -2.986522
 H     0.469833    -0.793638    -2.804189
 C     2.557043     1.625244     0.626220
 H     2.612917     1.595227     1.715729
 C     1.291178     1.636236    -1.423745
 H     0.323452     1.613016    -1.935698
 C     3.744610     1.655593    -0.102012
 H     4.717932     1.649074     0.391985
 C     2.468151     1.674879    -2.164500
 H     2.461401     1.698544    -3.256018
 C     3.683712     1.678404    -1.488439
 F     4.816643     1.691106    -2.189106
 H    -1.005388     3.571861    -0.309156
 H    -1.710220     3.476139     1.322749
 H     0.004484     3.984173     1.117409
 H     0.665165     0.487898     2.817992
 H     0.788220     2.275904     2.944558
 H    -0.783714     1.451246     3.191771
