 122
scf done:    -3291.014535
 C    -1.134297    -3.300878    -0.764358
 H    -0.731842    -4.179108    -0.224845
 H    -2.148229    -3.174553    -0.362313
 C    -1.217692    -3.649061    -2.248435
 H    -0.230874    -3.914749    -2.661141
 H    -1.893711    -4.503060    -2.448338
 H    -1.584947    -2.801463    -2.851467
Ir     0.106354    -1.624208    -0.272570
 C    -3.348572    -0.909609    -1.167298
 C    -2.744294     0.058428     1.457275
 C    -1.564893     1.421184    -0.917003
 C     1.376304     1.019835     1.849990
 C     3.423873    -0.597496     0.640329
 C     1.984900     1.217001    -1.106866
 P     1.703143     0.036442     0.305845
 P    -1.902090    -0.224221    -0.165748
 C     1.439686    -2.725116    -0.831848
 O     2.242426    -3.465461    -1.230255
 H    -2.831332    -1.581799    -1.867414
 C    -4.202600     0.053395    -1.992726
 H    -3.584474     0.714669    -2.612064
 H    -4.773570     0.705413    -1.314899
 C    -5.159748    -0.737321    -2.882790
 H    -5.776383    -0.045028    -3.480263
 H    -4.569345    -1.329958    -3.605215
 C    -6.049719    -1.673405    -2.072504
 H    -6.687932    -2.275106    -2.740629
 H    -6.734350    -1.066964    -1.451419
 C    -5.225913    -2.575373    -1.160865
 H    -4.636506    -3.283539    -1.770210
 H    -5.888109    -3.186395    -0.525483
 C    -4.275146    -1.759719    -0.290769
 H    -4.861469    -1.095018     0.365858
 H    -3.702494    -2.420708     0.375186
 C    -3.709550     1.055750     1.693232
 O    -4.065265     1.807573     0.634919
 C    -5.035948     2.802580     0.775121
 H    -5.138742     3.273677    -0.210870
 H    -6.011065     2.384142     1.080459
 H    -4.737363     3.572337     1.507998
 C    -2.504176    -0.866268     2.490830
 O    -1.741106    -1.921679     2.166294
 C    -1.381577    -2.874372     3.123845
 H    -0.772919    -3.612619     2.587986
 H    -2.267103    -3.373350     3.553706
 H    -0.781143    -2.428739     3.935584
 C    -3.065180    -0.702922     3.765186
 H    -2.838169    -1.404723     4.566386
 C    -4.280185     1.228650     2.959594
 H    -5.003451     2.022255     3.142599
 C    -3.932535     0.357123     3.987561
 H    -4.373849     0.492542     4.977922
 C    -1.309560     1.413584    -2.303728
 O    -1.247276     0.194424    -2.866039
 C    -0.876094     0.054166    -4.207404
 H    -0.788220    -1.024714    -4.387641
 H    -1.637986     0.474696    -4.887819
 H     0.096367     0.535764    -4.403654
 C    -1.500486     2.656267    -0.251590
 O    -1.514006     2.624859     1.094849
 C    -1.592585     3.812614     1.823179
 H    -1.683017     3.523265     2.878218
 H    -2.474879     4.412338     1.538867
 H    -0.689071     4.432510     1.698666
 C    -1.399197     3.853374    -0.972443
 H    -1.407570     4.811948    -0.455120
 C    -1.170166     2.600154    -3.029006
 H    -0.991845     2.579429    -4.102827
 C    -1.250245     3.811669    -2.353471
 H    -1.160199     4.745863    -2.912989
 H     0.584582     1.722491     1.550328
 C     2.553394     1.794472     2.435947
 H     3.030669     2.424962     1.676215
 H     3.319972     1.073130     2.769936
 C     2.093996     2.627299     3.630477
 H     2.944815     3.182851     4.059713
 H     1.369921     3.386905     3.281103
 C     1.432748     1.763327     4.700124
 H     1.056654     2.389928     5.526351
 H     2.197611     1.097017     5.138847
 C     0.311571     0.908805     4.117768
 H    -0.525830     1.553081     3.795125
 H    -0.102466     0.240743     4.891581
 C     0.792231     0.097237     2.920806
 H     1.558791    -0.628862     3.239166
 H    -0.021840    -0.494139     2.485794
 C     4.597439     0.074505     0.235633
 O     4.459184     1.337780    -0.210543
 C     5.471346     1.938609    -0.963250
 H     5.038806     2.858552    -1.379658
 H     6.349771     2.199002    -0.346215
 H     5.796910     1.291812    -1.795867
 C     3.593563    -1.843342     1.279079
 O     2.493998    -2.399193     1.816754
 C     2.480758    -3.765487     2.121287
 H     1.434381    -4.021938     2.327583
 H     3.092105    -3.994021     3.012162
 H     2.829951    -4.369424     1.268145
 C     4.848697    -2.459706     1.367398
 H     4.951223    -3.437694     1.835611
 C     5.855672    -0.534506     0.317125
 H     6.746610    -0.008412    -0.024197
 C     5.965457    -1.805283     0.867630
 H     6.946166    -2.282614     0.933532
 C     1.832192     2.614713    -1.098360
 O     1.511874     3.212823     0.072117
 C     1.762149     4.577947     0.227826
 H     1.645015     4.798257     1.297645
 H     2.790422     4.839304    -0.077219
 H     1.051935     5.200170    -0.343414
 C     2.408563     0.633873    -2.322829
 O     2.697146    -0.675584    -2.276509
 C     3.080649    -1.358451    -3.435279
 H     3.214553    -2.404645    -3.137956
 H     4.028986    -0.966085    -3.842954
 H     2.301713    -1.302565    -4.215350
 C     2.591504     1.390830    -3.487044
 H     2.914963     0.913686    -4.411157
 C     2.036912     3.382865    -2.253762
 H     1.885938     4.460571    -2.227295
 C     2.399785     2.766202    -3.440958
 H     2.544420     3.366189    -4.342606
