 110
scf done:    -2611.608727
 C    -1.291469     1.966154    -2.911037
 H    -0.951259     2.029613    -3.956883
 H    -2.331431     1.613665    -2.976326
 C    -1.259587     3.364909    -2.302664
 H    -0.237658     3.776404    -2.277149
 H    -1.884236     4.082740    -2.867387
 H    -1.629515     3.379849    -1.261602
Ir    -0.010424     0.735297    -1.726632
 C    -1.629614     0.749763     1.451341
 C    -3.492092     0.741079    -0.741148
 C    -1.856392    -1.714422    -0.088225
 C     1.634982    -1.526185     0.613218
 C     3.353022    -0.072132    -1.147753
 C     1.888456     1.333348     1.103260
 P     1.709422     0.083803    -0.262892
 P    -1.787070     0.133993    -0.269648
 C     1.019684     0.499322    -3.232459
 O     1.580515     0.195580    -4.200034
 C    -1.730731     2.137109     1.663528
 H    -1.955572     2.799562     0.823092
 C    -1.322329    -0.050760     2.551412
 H    -1.231772    -1.131102     2.439604
 C    -1.533227     2.692837     2.915135
 H    -1.617389     3.768628     3.079056
 C    -1.088927     0.497670     3.815871
 H    -0.834129    -0.167216     4.641743
 C    -1.187276     1.878140     4.004436
 O    -0.959844     2.509993     5.171515
 C    -0.563805     1.752683     6.280781
 H     0.384772     1.218686     6.093024
 H    -0.416014     2.458415     7.107766
 H    -1.333838     1.017120     6.572901
 H    -3.273889     1.774424    -1.068666
 C    -4.550986     0.829778     0.360676
 H    -4.158816     1.356005     1.242740
 H    -4.824805    -0.181812     0.701307
 C    -5.797304     1.543147    -0.159750
 H    -6.562895     1.586974     0.632129
 H    -5.536367     2.590547    -0.397144
 C    -6.359741     0.871538    -1.407618
 H    -7.226856     1.434465    -1.789722
 H    -6.736305    -0.132153    -1.137664
 C    -5.296201     0.727460    -2.490354
 H    -4.999484     1.727252    -2.855281
 H    -5.702436     0.187314    -3.360872
 C    -4.060653     0.007646    -1.959958
 H    -4.345763    -1.017109    -1.668031
 H    -3.297677    -0.089970    -2.746346
 H    -0.938324    -1.924344     0.490948
 C    -1.689060    -2.428418    -1.435092
 H    -0.796944    -2.025413    -1.942273
 H    -2.542821    -2.193529    -2.089763
 C    -1.599819    -3.940488    -1.257153
 H    -1.541572    -4.427248    -2.244449
 H    -0.662314    -4.180837    -0.731104
 C    -2.767329    -4.499820    -0.452751
 H    -2.643665    -5.584840    -0.298907
 H    -3.704927    -4.373274    -1.024397
 C    -2.902062    -3.782704     0.885531
 H    -2.005364    -3.981676     1.501354
 H    -3.763690    -4.174201     1.450705
 C    -3.051182    -2.277237     0.684386
 H    -3.975879    -2.090202     0.114207
 H    -3.178521    -1.768280     1.651610
 C     1.438132    -1.675716     1.993668
 H     1.385485    -0.799285     2.639883
 C     1.701196    -2.690833    -0.160456
 H     1.837051    -2.613155    -1.242945
 C     1.278404    -2.930337     2.567921
 H     1.106943    -3.045096     3.640177
 C     1.575836    -3.957260     0.404474
 H     1.642331    -4.835296    -0.237976
 C     1.336554    -4.084828     1.778403
 O     1.145887    -5.258089     2.412393
 C     1.139314    -6.437937     1.657303
 H     2.110988    -6.617274     1.164447
 H     0.941694    -7.258905     2.357921
 H     0.347153    -6.426163     0.887668
 H     3.064166    -0.700520    -2.011282
 C     4.502413    -0.792754    -0.440734
 H     4.164456    -1.750006    -0.017279
 H     4.864677    -0.188182     0.405558
 C     5.653124    -1.027745    -1.417671
 H     6.486522    -1.533289    -0.902751
 H     5.313829    -1.718036    -2.211315
 C     6.131452     0.272784    -2.054495
 H     6.927271     0.070616    -2.789828
 H     6.586075     0.909015    -1.272991
 C     4.981864     1.033111    -2.707045
 H     4.597850     0.463399    -3.571679
 H     5.335269     1.998763    -3.103609
 C     3.837217     1.259806    -1.725217
 H     4.190658     1.904916    -0.902017
 H     3.007354     1.794530    -2.212260
 H     1.026953     1.099147     1.756028
 C     1.661235     2.758988     0.585407
 H     0.716118     2.796130     0.018023
 H     2.452775     3.022941    -0.134454
 C     1.655393     3.772966     1.724554
 H     1.546464     4.790888     1.316173
 H     0.771257     3.591993     2.357101
 C     2.904920     3.675103     2.591693
 H     2.843410     4.384352     3.433151
 H     3.790641     3.969989     1.999705
 C     3.103831     2.253344     3.103630
 H     2.264258     1.984929     3.771789
 H     4.022527     2.183065     3.708845
 C     3.162641     1.261303     1.945785
 H     4.029000     1.514954     1.312632
 H     3.339787     0.239982     2.315843
