 106
scf done:    -2833.330576
 C     4.108964    -1.681729     1.127972
 H     4.398207    -2.743193     1.072872
 H     4.811514    -1.161329     0.456593
 C     4.316715    -1.162162     2.546929
 H     3.690720    -1.699240     3.278065
 H     5.365787    -1.280208     2.875198
 H     4.077502    -0.089145     2.620869
Ir     2.026966    -1.436087     0.606244
 C     3.742065    -0.142775    -2.025396
 O     1.933534     1.553856    -1.287617
 O     3.903347     1.297658     0.317858
 C    -1.211742     0.007441    -0.394017
 O    -0.944193    -2.693548     0.190845
 O    -0.892016    -1.027222     2.076634
 P    -0.241357    -1.243709     0.542413
 P     2.836270     0.372668    -0.515684
 C     1.882110    -3.294264     0.816424
 O     1.877605    -4.441666     0.812853
 H     4.444007    -0.904411    -1.641574
 C     4.538062     0.981273    -2.688373
 H     5.259593     1.419418    -1.976918
 H     3.843974     1.784577    -2.989307
 C     5.294032     0.467069    -3.911356
 H     5.829986     1.299032    -4.396086
 H     6.065744    -0.250963    -3.580955
 C     4.361087    -0.219283    -4.902634
 H     4.935445    -0.610003    -5.757983
 H     3.657666     0.527076    -5.314317
 C     3.568150    -1.336976    -4.234430
 H     4.258969    -2.137875    -3.915306
 H     2.869914    -1.796927    -4.951942
 C     2.800670    -0.824247    -3.021407
 H     2.042045    -0.093726    -3.351831
 H     2.261668    -1.640745    -2.513991
 C     1.247282     2.579317    -0.708420
 C     0.748377     3.558673    -1.571496
 H     0.927043     3.453184    -2.642968
 C     1.029459     2.688073     0.664940
 H     1.426383     1.943002     1.356300
 C     0.029778     4.632042    -1.059934
 H    -0.356885     5.389096    -1.748088
 C     0.290628     3.764461     1.156543
 H     0.113117     3.821495     2.232931
 C    -0.225945     4.751652     0.313300
 C    -1.057632     5.881465     0.846650
 H    -0.983629     5.952977     1.940954
 H    -2.122138     5.741080     0.594526
 H    -0.749297     6.848502     0.420625
 C    -2.600661     1.577429    -2.429563
 C    -2.675258     2.334305    -1.123055
 H    -1.721536     2.734706    -0.756494
 C    -3.829644     2.307028    -2.947357
 H    -3.828678     2.659434    -3.990051
 C    -4.848914     1.366927    -0.144507
 H    -5.187447     0.628681     0.601968
 C    -5.034795     1.436436    -2.680793
 H    -5.573307     1.084111    -3.567337
 C    -5.455187     0.988581    -1.484471
 C    -6.631566     0.062168    -1.388883
 H    -7.406632     0.469304    -0.716573
 H    -6.320633    -0.906431    -0.959511
 H    -7.092279    -0.125964    -2.369090
 H    -0.740036     0.937424    -0.031664
 C    -2.712332     0.053884    -0.055153
 H    -2.903132    -0.415824     0.918444
 H    -3.257352    -0.550488    -0.795213
 C    -3.322722     1.464636    -0.038516
 H    -5.300121     2.322155     0.177790
 H    -3.096870     1.932911     0.935673
 C    -3.578753     3.364193    -1.841034
 H    -2.982046     4.206234    -2.220113
 H    -4.459844     3.755300    -1.313191
 C    -1.843996     0.553871    -2.816592
 H     4.329882     1.964250    -0.238152
 H    -1.973777     0.137329    -3.822013
 C    -0.892283    -0.158477    -1.896665
 H    -0.927261    -1.231927    -2.151524
 H     0.149865     0.146485    -2.082087
 C    -2.285806    -2.984648     0.163301
 C    -2.899727    -3.212188    -1.065470
 H    -2.304568    -3.150439    -1.978099
 C    -3.023350    -3.084496     1.343039
 H    -2.523368    -2.914407     2.296777
 C    -4.263070    -3.491750    -1.115198
 H    -4.739407    -3.652359    -2.086180
 C    -4.384877    -3.360668     1.275580
 H    -4.960511    -3.421301     2.203664
 C    -5.034450    -3.560082     0.049889
 C    -6.502394    -3.871329    -0.003669
 H    -6.914621    -3.697799    -1.007953
 H    -7.071301    -3.254804     0.708636
 H    -6.695119    -4.926025     0.254535
 C    -0.477904     0.002981     2.877565
 C    -1.420722     0.928763     3.321008
 H    -2.462317     0.813594     3.016568
 C     0.854016     0.123994     3.280811
 H     1.583912    -0.618667     2.936557
 C    -1.024793     1.979399     4.146475
 H    -1.774599     2.698096     4.488987
 C     1.237031     1.188053     4.090579
 H     2.286310     1.273267     4.386935
 C     0.309596     2.139809     4.535652
 C     0.743766     3.303425     5.379292
 H     1.237952     4.076128     4.765970
 H     1.465912     2.995495     6.150178
 H    -0.110266     3.777926     5.883237
