  94
scf done:    -2826.157402
 C     1.533194     0.512646     3.383650
 H     1.393769    -0.357804     4.050801
 H     2.536393     0.368433     2.953733
 C     1.523544     1.797690     4.204810
 H     0.591314     1.925095     4.777511
 H     2.355015     1.825182     4.932445
 H     1.622269     2.698819     3.576152
Ir    -0.011839     0.315635     1.890673
 C     2.680485     1.232326    -0.242441
 O     2.822593    -1.150896     1.066758
 O     1.380432    -0.893327    -1.032868
 C    -2.663117    -1.323393     0.110433
 O    -2.866907     1.280337     0.765031
 O    -1.408625     0.531574    -1.225937
 P    -1.676660     0.174403     0.374545
 P     1.695166    -0.135541     0.401274
 C    -1.244329     0.727716     3.251307
 O    -1.994730     0.957134     4.086989
 C     3.355637     1.154975    -1.465424
 C     2.828473     2.360959     0.571288
 C     4.354147     3.312760    -1.037670
 C     3.668308     3.397765     0.173589
 C     4.191365     2.196615    -1.857649
 H     3.225794     0.276972    -2.099454
 H     4.722275     2.134290    -2.810410
 H     5.014499     4.125986    -1.348967
 H     3.784296     4.276881     0.811560
 H     2.276192     2.419267     1.512468
 C     4.013790    -1.438079     0.441148
 C     4.087644    -2.477120    -0.483088
 H     3.192883    -3.059124    -0.711514
 C     5.146348    -0.686829     0.748922
 H     5.063443     0.130537     1.467533
 C     5.304909    -2.756579    -1.100081
 H     5.357620    -3.572060    -1.826725
 C     6.353757    -0.979666     0.123864
 H     7.237181    -0.382180     0.365269
 C     6.457294    -2.016887    -0.811716
 C     7.771771    -2.342360    -1.460134
 H     7.631116    -2.863537    -2.417972
 H     8.379712    -2.999114    -0.815447
 H     8.364121    -1.434732    -1.648614
 C     0.612245    -2.022125    -1.144301
 C     0.353719    -2.875487    -0.072596
 H     0.762991    -2.662153     0.916935
 C     0.095562    -2.310152    -2.407523
 H     0.319499    -1.634154    -3.233369
 C    -0.448957    -3.997603    -0.273239
 H    -0.662711    -4.649342     0.577497
 C    -0.697144    -3.435626    -2.586989
 H    -1.108556    -3.644107    -3.578551
 C    -0.991659    -4.299964    -1.523202
 C    -1.842307    -5.518155    -1.730555
 H    -2.264752    -5.875522    -0.780988
 H    -1.257982    -6.344594    -2.168923
 H    -2.678953    -5.309596    -2.413802
 C    -2.854636    -2.153406     1.220359
 C    -3.299806    -1.618695    -1.098822
 C    -4.341416    -3.543571    -0.073906
 C    -4.136806    -2.728151    -1.186150
 C    -3.696407    -3.258618     1.129682
 H    -2.329837    -1.927611     2.153581
 H    -3.846279    -3.902066     1.999847
 H    -5.003070    -4.410329    -0.146905
 H    -4.638062    -2.954482    -2.130293
 H    -3.140895    -0.971135    -1.961957
 C    -4.061195     1.347107     0.090433
 C    -4.161171     2.063020    -1.100510
 H    -3.281065     2.571259    -1.498444
 C    -5.178401     0.698079     0.613976
 H    -5.076019     0.135241     1.543410
 C    -5.384474     2.119333    -1.764720
 H    -5.455944     2.680778    -2.700484
 C    -6.392281     0.764897    -0.060941
 H    -7.261945     0.247361     0.353513
 C    -6.519618     1.473744    -1.262350
 C    -7.841298     1.561681    -1.969460
 H    -7.713379     1.795835    -3.036103
 H    -8.473252     2.353414    -1.533077
 H    -8.403516     0.619131    -1.891896
 C    -0.632088     1.577290    -1.641314
 C    -0.413475     2.715727    -0.864841
 H    -0.866493     2.800920     0.124612
 C    -0.059635     1.479766    -2.909965
 H    -0.251770     0.585999    -3.504387
 C     0.404898     3.731075    -1.357070
 H     0.585117     4.609927    -0.732646
 C     0.747667     2.505150    -3.384363
 H     1.201761     2.410569    -4.374787
 C     1.003211     3.649364    -2.616100
 C     1.868496     4.756310    -3.142297
 H     2.270070     5.371776    -2.324909
 H     1.301652     5.422954    -3.813896
 H     2.719962     4.360415    -3.715519
