  98
scf done:    -2230.371057
 C    -1.020747    -3.194927    -0.848169
 H    -0.812524    -4.156243    -0.351464
 H    -2.114536    -3.087731    -0.801176
 C    -0.580311    -3.292757    -2.305511
 H     0.507691    -3.440703    -2.396721
 H    -1.068249    -4.133438    -2.834188
 H    -0.821100    -2.380369    -2.879103
Ir     0.045244    -1.578625     0.061353
 C    -1.174771     1.215270    -1.777420
 C    -3.227339    -0.716297    -1.215068
 C    -2.214368     0.939053     0.919504
 C     1.127020     1.444534     1.697800
 C     3.150483    -0.529013     1.324975
 C     2.204954     0.959683    -0.958930
 P     1.594531     0.093512     0.546001
 P    -1.652706    -0.043477    -0.527581
 C     0.919340    -2.835072     1.091195
 O     1.370354    -3.586086     1.846936
 C    -1.024403     2.576142    -1.481904
 C    -0.813274     0.763038    -3.055080
 C    -0.164733     2.998094    -3.703065
 C    -0.318511     1.645537    -4.010846
 C    -0.520119     3.459182    -2.437519
 H    -1.276178     2.957300    -0.491625
 H    -0.402167     4.516258    -2.186273
 H     0.236088     3.689220    -4.448074
 H    -0.037350     1.272592    -4.998585
 H    -0.891757    -0.300850    -3.294465
 H    -2.945602    -1.367546    -2.058857
 H    -3.811719     0.118594    -1.631331
 C    -4.020577    -1.508074    -0.178146
 H    -3.323232    -2.079984     0.456728
 H    -4.544964    -0.812995     0.500155
 C    -5.044896    -2.473116    -0.778172
 H    -4.490244    -3.165819    -1.439079
 C    -5.698154    -3.301221     0.321317
 H    -4.946464    -3.853456     0.906118
 H    -6.407318    -4.033439    -0.094835
 H    -6.257787    -2.656059     1.019480
 C    -6.091164    -1.752301    -1.620707
 H    -6.819212    -2.462227    -2.042820
 H    -5.639833    -1.204343    -2.461668
 H    -6.652442    -1.025074    -1.009318
 H    -1.337077     1.517209     1.246177
 H    -2.377766     0.198434     1.716932
 C    -3.426249     1.846679     0.727385
 H    -3.404880     2.312247    -0.271728
 H    -4.353395     1.249103     0.753971
 C    -3.524340     2.957609     1.776876
 H    -2.592785     3.552539     1.711230
 C    -4.696802     3.880481     1.468381
 H    -4.617766     4.309533     0.457058
 H    -4.751650     4.714344     2.185348
 H    -5.652400     3.332631     1.523219
 C    -3.614719     2.403620     3.193929
 H    -3.691929     3.217156     3.931971
 H    -2.730446     1.804601     3.456287
 H    -4.506370     1.764026     3.308567
 C     0.737695     1.073433     2.994083
 C     1.014866     2.789149     1.323199
 C     0.142899     3.358016     3.506680
 C     0.520408     3.737229     2.220643
 C     0.259606     2.021307     3.893204
 H     0.777429     0.019662     3.285069
 H    -0.040693     1.713685     4.897790
 H    -0.247157     4.100336     4.206862
 H     0.431493     4.781175     1.909340
 H     1.294544     3.106234     0.317370
 H     2.844257    -1.008074     2.269844
 H     3.786245     0.329680     1.590551
 C     3.881388    -1.533750     0.441284
 H     3.139569    -2.166993    -0.075198
 H     4.428101    -0.999643    -0.356692
 C     4.856337    -2.441798     1.192825
 H     4.267390    -2.979253     1.959101
 C     5.446059    -3.480645     0.247071
 H     4.655215    -4.077379    -0.233087
 H     6.115568    -4.174047     0.779294
 H     6.033921    -2.997634    -0.551779
 C     5.953425    -1.653742     1.899261
 H     6.644217    -2.324932     2.432871
 H     5.544987    -0.946838     2.637386
 H     6.548332    -1.073482     1.173124
 H     1.354964     1.547916    -1.337561
 H     2.348719     0.158246    -1.700366
 C     3.452223     1.826418    -0.823723
 H     3.433474     2.380368     0.129591
 H     4.349799     1.185462    -0.775642
 C     3.622252     2.833894    -1.964562
 H     2.725874     3.484250    -1.960804
 C     4.843144     3.712844    -1.722477
 H     4.782967     4.228460    -0.751104
 H     4.949316     4.479548    -2.505634
 H     5.766265     3.109425    -1.721545
 C     3.690853     2.156025    -3.328106
 H     3.829663     2.896678    -4.131079
 H     2.772345     1.594095    -3.552969
 H     4.539685     1.452719    -3.373871
