  54
scf done:    -2100.996981
 C    -3.558688    -0.645230     0.484261
 H    -4.005176    -1.611196     0.769006
 H    -3.692755     0.016096     1.354629
 C    -4.303487    -0.062980    -0.712769
 H    -4.212266    -0.700410    -1.607603
 H    -5.384470     0.048577    -0.506696
 H    -3.924023     0.937042    -0.976418
Ir    -1.502799    -0.847242    -0.092516
 C     0.121896     2.397563     0.186235
 O    -2.475825     2.203902     0.842975
 O    -0.644252     1.173398     2.350303
 C     2.021353    -1.435082    -0.012749
 O     0.775035    -2.213011    -2.153225
 O     1.014209     0.318082    -1.844038
 P     0.563597    -1.032437    -1.024159
 P    -1.149614     1.249097     0.787726
 C    -1.741331    -2.699916     0.001521
 O    -1.860679    -3.824551     0.210912
 C     1.302689     2.663677     0.882846
 H     1.456676     2.220350     1.867650
 C    -0.082727     2.979652    -1.071048
 H    -0.997554     2.762495    -1.628870
 C     2.276718     3.493189     0.330873
 H     3.208784     3.711446     0.855118
 C     0.873641     3.820590    -1.625898
 H     0.733031     4.287380    -2.602382
 C     2.047224     4.059035    -0.916567
 F     2.974296     4.849755    -1.451084
 C    -2.465953     3.455922     1.497869
 H    -2.091784     3.364112     2.529741
 H    -1.838378     4.184747     0.959010
 H    -3.502513     3.817918     1.518684
 C    -1.187901     0.205509     3.233976
 H    -2.192475     0.505775     3.572002
 H    -1.256246    -0.777095     2.738313
 H    -0.517731     0.147608     4.102119
 C     3.072796    -2.235958    -0.475464
 H     3.011204    -2.674677    -1.472934
 C     2.083718    -0.901765     1.279920
 H     1.250983    -0.302325     1.655500
 C     4.177578    -2.486402     0.332297
 H     5.006059    -3.112034    -0.004920
 C     3.187041    -1.137331     2.094121
 H     3.254026    -0.730951     3.104830
 C     4.221057    -1.927598     1.605244
 F     5.276580    -2.163194     2.378946
 C    -0.181242    -2.342427    -3.184234
 H    -1.208109    -2.273128    -2.785293
 H    -0.048188    -1.560173    -3.950049
 H    -0.038553    -3.328034    -3.647582
 C     2.286183     0.470770    -2.430910
 H     3.079464     0.500263    -1.665735
 H     2.506092    -0.343291    -3.141433
 H     2.280488     1.428288    -2.969817
