  90
scf done:    -2572.408279
 C    -1.229175    -2.613885     1.367587
 H    -1.031883    -3.003336     2.379894
 H    -2.242878    -2.184597     1.413752
 C    -1.215163    -3.755857     0.356693
 H    -0.234797    -4.257881     0.314091
 H    -1.966092    -4.530109     0.601246
 H    -1.441669    -3.403514    -0.663479
Ir     0.272219    -1.207300     0.735050
 C    -2.560453    -0.458955    -1.229803
 O    -2.660460     0.275859     1.284291
 O    -1.150190     1.652904    -0.263375
 C     2.668156     1.467080     0.115953
 O     3.212126    -0.893003    -0.817413
 O     1.247907     0.334720    -1.912586
 P     1.847900    -0.061259    -0.429607
 P    -1.509344     0.099331     0.135472
 C     1.470014    -2.054818     1.900424
 O     2.143590    -2.475098     2.733848
 C    -1.908714    -0.768800    -2.432164
 H    -0.822269    -0.651370    -2.498342
 C    -3.944893    -0.625533    -1.125582
 H    -4.442484    -0.395599    -0.181711
 C    -2.635646    -1.219345    -3.528479
 H    -2.153778    -1.466182    -4.476220
 C    -4.679226    -1.083762    -2.216262
 H    -5.760030    -1.226161    -2.162607
 C    -4.013405    -1.369842    -3.402777
 F    -4.712339    -1.806081    -4.446256
 C    -2.284349     0.429679     2.652232
 H    -1.527177    -0.334422     2.901681
 H    -1.816755     1.419624     2.791583
 C    -3.517991     0.299237     3.514260
 H    -3.218890     0.508098     4.556290
 H    -4.235680     1.091974     3.236113
 C    -4.193479    -1.062229     3.430962
 H    -3.466445    -1.843034     3.712797
 H    -4.454736    -1.267230     2.379701
 C    -5.434204    -1.165661     4.302181
 H    -5.194696    -0.997430     5.364697
 H    -6.189518    -0.416317     4.014377
 H    -5.903419    -2.157704     4.221391
 C    -2.133246     2.613569    -0.638941
 H    -1.624228     3.290483    -1.343476
 H    -2.951479     2.118976    -1.189581
 C    -2.674085     3.393351     0.543157
 H    -3.389430     4.135950     0.147524
 H    -3.258398     2.715311     1.185776
 C    -1.603031     4.097152     1.364429
 H    -1.035556     4.783600     0.710313
 H    -0.873552     3.350028     1.718775
 C    -2.168098     4.859138     2.551574
 H    -2.880855     5.635522     2.230233
 H    -2.706512     4.183344     3.235863
 H    -1.374607     5.354214     3.131230
 C     1.848396     2.547787     0.467525
 H     0.763842     2.443759     0.381171
 C     4.057348     1.589060     0.228473
 H     4.692432     0.745526    -0.046372
 C     2.405841     3.741013     0.913323
 H     1.785146     4.595579     1.189399
 C     4.624244     2.776781     0.684036
 H     5.704755     2.895167     0.784180
 C     3.789660     3.836754     1.018250
 F     4.328531     4.973620     1.452142
 C     3.115534    -2.235879    -1.273776
 H     2.289305    -2.745638    -0.742905
 H     2.865632    -2.233279    -2.349422
 C     4.432727    -2.936880    -1.031704
 H     4.374212    -3.937330    -1.495060
 H     5.226750    -2.392135    -1.572865
 C     4.800845    -3.063026     0.439745
 H     4.016198    -3.634691     0.963551
 H     4.790158    -2.060029     0.896888
 C     6.152828    -3.719528     0.662620
 H     6.180601    -4.737500     0.240911
 H     6.961728    -3.144480     0.183169
 H     6.390990    -3.798015     1.733987
 C     2.024829     0.988667    -2.905509
 H     2.468874     1.908430    -2.484035
 H     2.854764     0.333387    -3.220314
 C     1.115059     1.318581    -4.067814
 H     1.725248     1.751815    -4.879184
 H     0.697569     0.376311    -4.465544
 C    -0.015894     2.263020    -3.685633
 H     0.415136     3.236359    -3.389821
 H    -0.502670     1.863653    -2.783078
 C    -1.041937     2.459311    -4.787895
 H    -0.582777     2.860731    -5.705840
 H    -1.528072     1.505571    -5.049939
 H    -1.835683     3.157600    -4.481239
