 102
scf done:    -2532.609135
 C    -1.261005     1.681586    -2.768315
 H    -1.449768     1.220253    -3.754031
 H    -2.260605     1.814714    -2.324395
 C    -0.615921     3.046074    -2.990230
 H     0.334869     2.963633    -3.540346
 H    -1.272050     3.724184    -3.567633
 H    -0.383804     3.560293    -2.042330
Ir     0.021788     0.464520    -1.549776
 C    -2.257581     1.456577     1.074136
 C    -3.268682    -0.578353    -0.891072
 C    -1.505266    -1.346122     1.127041
 C     1.978614    -1.759876     0.755076
 C     3.405458     0.334667    -0.566158
 C     1.438070     1.073275     1.362997
 P     1.699560    -0.092555    -0.027480
 P    -1.762283     0.048259    -0.041012
 C     1.003655     0.239049    -3.095510
 O     1.487837    -0.021241    -4.113142
 H    -1.367660     1.534809     1.728402
 C    -3.495974     1.276904     1.951002
 H    -3.455581     0.331673     2.513851
 H    -4.386938     1.223333     1.303350
 C    -3.654748     2.454161     2.909705
 H    -4.546923     2.307482     3.540151
 H    -2.787762     2.482830     3.595399
 C    -3.746094     3.772374     2.150705
 H    -3.829541     4.618656     2.852261
 H    -4.672291     3.775628     1.548028
 C    -2.545378     3.957625     1.231455
 H    -1.636171     4.076727     1.845880
 H    -2.647357     4.883068     0.641810
 C    -2.346221     2.769925     0.295749
 H    -3.186599     2.714278    -0.418531
 H    -1.435828     2.906270    -0.305133
 C    -3.271773    -0.740134    -2.278819
 H    -2.382693    -0.450932    -2.841849
 C    -4.383880    -1.029225    -0.168125
 H    -4.382883    -0.994763     0.921797
 C    -4.375284    -1.288713    -2.929313
 H    -4.349163    -1.407235    -4.016073
 C    -5.484190    -1.568919    -0.823269
 H    -6.340752    -1.913830    -0.237031
 C    -5.506557    -1.698499    -2.218728
 C    -6.709594    -2.254764    -2.921025
 H    -6.450783    -2.650889    -3.913208
 H    -7.180334    -3.060927    -2.338984
 H    -7.472647    -1.472018    -3.067944
 C    -1.264888    -1.191036     2.494098
 H    -1.264295    -0.199410     2.946186
 C    -1.507306    -2.645989     0.598251
 H    -1.707675    -2.792369    -0.466173
 C    -1.002628    -2.298849     3.302132
 H    -0.808315    -2.148889     4.368017
 C    -1.261662    -3.744806     1.409730
 H    -1.276321    -4.747015     0.972454
 C    -0.987494    -3.592694     2.777267
 C    -0.667268    -4.783764     3.630277
 H    -1.399094    -5.592657     3.483209
 H     0.323171    -5.194351     3.371192
 H    -0.651698    -4.525488     4.698286
 H     1.095231    -1.909083     1.400683
 C     3.249805    -1.883997     1.595254
 H     3.292338    -1.107915     2.374940
 H     4.124919    -1.708106     0.946927
 C     3.358784    -3.273995     2.215438
 H     4.278844    -3.346877     2.818196
 H     2.513968    -3.430883     2.911390
 C     3.337476    -4.354928     1.140889
 H     3.390117    -5.356887     1.597855
 H     4.240259    -4.251921     0.511957
 C     2.095625    -4.235215     0.265053
 H     1.203084    -4.455308     0.874759
 H     2.117494    -4.986368    -0.541345
 C     1.947963    -2.839055    -0.330758
 H     2.776603    -2.660714    -1.039058
 H     1.016978    -2.751630    -0.912820
 C     3.897851    -0.183134    -1.771202
 H     3.251536    -0.777998    -2.418013
 C     4.268877     1.102119     0.223712
 H     3.919611     1.511008     1.174131
 C     5.209125     0.057776    -2.167737
 H     5.565765    -0.360221    -3.113293
 C     5.577116     1.349988    -0.185043
 H     6.229830     1.956384     0.449494
 C     6.073036     0.834753    -1.386733
 C     7.471789     1.128882    -1.842760
 H     7.482440     1.967102    -2.559480
 H     8.121214     1.408148    -1.000773
 H     7.920313     0.262685    -2.351410
 C     1.281265     0.710741     2.701992
 H     1.388590    -0.330439     3.006942
 C     1.292978     2.429326     1.020577
 H     1.409673     2.729110    -0.025402
 C     0.959809     1.668814     3.666063
 H     0.829220     1.357665     4.706530
 C     0.994256     3.379790     1.987140
 H     0.892863     4.428413     1.693919
 C     0.804549     3.015438     3.329103
 C     0.421433     4.041736     4.353451
 H     1.061212     4.934811     4.286735
 H    -0.617815     4.378472     4.200074
 H     0.494811     3.642763     5.374741
