 102
scf done:    -2929.371278
 C    -2.412958     0.919718    -2.591657
 H    -1.950110     1.204491    -3.552854
 H    -2.936387    -0.021558    -2.827640
 C    -3.419303     1.999259    -2.204815
 H    -2.926208     2.977625    -2.091593
 H    -4.219517     2.123016    -2.958430
 H    -3.911992     1.791796    -1.241195
Ir    -0.836452     0.628839    -1.154511
 C    -3.961528    -0.833064     0.069555
 C    -2.241279    -2.569884    -1.591238
 C    -1.585337    -2.144114     1.134744
 C     1.681742    -0.888366     1.185709
 C     2.529311     0.843783    -1.097769
 C     1.319990     1.948623     1.344911
 P     1.144794     0.545667     0.128729
 P    -2.160275    -1.197808    -0.341718
 C    -0.186148     2.152164    -1.976174
 O     0.130454     3.105217    -2.542440
 H    -3.939334     0.232577     0.359703
 C    -4.527831    -1.632044     1.248848
 H    -3.886993    -1.538795     2.135918
 H    -4.555067    -2.705026     0.983445
 C    -5.937867    -1.168528     1.606055
 H    -6.321087    -1.766563     2.448635
 H    -5.886022    -0.125156     1.966023
 C    -6.884840    -1.245582     0.416659
 H    -7.878273    -0.853383     0.687651
 H    -7.033810    -2.304989     0.139014
 C    -6.316656    -0.491396    -0.777161
 H    -6.281390     0.589299    -0.550922
 H    -6.973346    -0.601212    -1.655048
 C    -4.910459    -0.967704    -1.128675
 H    -4.959420    -2.028420    -1.431758
 H    -4.538619    -0.405644    -1.992722
 H    -2.815672    -3.412636    -1.176462
 H    -2.808218    -2.168126    -2.443748
 C    -0.872084    -3.001949    -2.031991
 C    -0.089148    -2.147878    -2.824568
 H    -0.491093    -1.174383    -3.123449
 C    -0.329064    -4.227877    -1.636323
 H    -0.926374    -4.912846    -1.028355
 C     1.207314    -2.496150    -3.186598
 H     1.825034    -1.833158    -3.795565
 C     0.969268    -4.593384    -1.994650
 H     1.403751    -5.544703    -1.683232
 C     1.725931    -3.710044    -2.751491
 F     2.986683    -4.023687    -3.058534
 H    -2.253144    -3.007385     1.283150
 H    -0.610968    -2.564689     0.840076
 C    -1.445606    -1.376315     2.424052
 C    -1.610709     0.011275     2.504873
 H    -1.840926     0.580341     1.597957
 C    -1.109501    -2.068435     3.595908
 H    -0.976905    -3.153186     3.559219
 C    -1.436846     0.693071     3.707966
 H    -1.561352     1.775880     3.772766
 C    -0.928382    -1.404621     4.804975
 H    -0.661381    -1.939401     5.718164
 C    -1.092803    -0.024381     4.845372
 F    -0.919910     0.618196     5.997870
 H     0.784112    -1.046572     1.805509
 C     2.843781    -0.677668     2.162042
 H     2.667217     0.202888     2.796948
 H     3.778522    -0.491477     1.611544
 C     3.019964    -1.909081     3.047927
 H     3.865641    -1.753630     3.737268
 H     2.120180    -2.031810     3.678174
 C     3.233253    -3.170313     2.220155
 H     3.339264    -4.050195     2.875439
 H     4.183079    -3.078894     1.662918
 C     2.094590    -3.376219     1.228816
 H     1.161729    -3.583950     1.785810
 H     2.281112    -4.259352     0.597420
 C     1.896198    -2.147723     0.348384
 H     2.790140    -2.020139    -0.279868
 H     1.056547    -2.292200    -0.346630
 H     2.265911     0.202541    -1.951956
 H     2.364271     1.879933    -1.435076
 C     3.957189     0.630524    -0.701097
 C     4.654948     1.565426     0.075698
 H     4.166094     2.496646     0.366690
 C     4.643475    -0.524646    -1.101465
 H     4.144408    -1.253040    -1.746004
 C     5.963814     1.337545     0.490532
 H     6.505615     2.062443     1.100565
 C     5.952449    -0.771963    -0.696992
 H     6.484856    -1.673750    -1.004631
 C     6.594036     0.159403     0.109624
 F     7.844350    -0.070760     0.507446
 H     0.758870     1.616020     2.232668
 H     2.373012     2.039863     1.646793
 C     0.786569     3.255573     0.843115
 C     1.635933     4.238876     0.326823
 H     2.716691     4.077420     0.328520
 C    -0.593223     3.507127     0.833347
 H    -1.278317     2.746631     1.211017
 C     1.137448     5.431333    -0.194341
 H     1.797051     6.197503    -0.604765
 C    -1.109814     4.692945     0.324530
 H    -2.183422     4.887479     0.306640
 C    -0.234132     5.640040    -0.193149
 F    -0.722507     6.774866    -0.691758
