  82
scf done:    -2144.990482
 C     2.060817    -0.972492    -2.134157
 H     1.860756    -1.196525    -3.195874
 H     2.635098    -0.032469    -2.144675
 C     2.948192    -2.059893    -1.538030
 H     2.456598    -3.045967    -1.549670
 H     3.902224    -2.161110    -2.089113
 H     3.210863    -1.841023    -0.489778
Ir     0.240989    -0.884598    -0.985378
 C     2.760489     1.213516     0.157737
 C     1.136541     2.260042    -2.053898
 C     0.289514     2.554423     0.733520
 C    -2.801592    -0.075697     0.779329
 C    -2.529342    -2.809339     0.000813
 C    -0.828413    -1.699719     2.240749
 P    -1.492070    -1.331602     0.531820
 P     1.026363     1.297311    -0.448501
 C    -0.362360    -2.131682    -2.195125
 O    -0.767698    -2.779369    -3.064588
 C     3.855152     1.874726    -0.420209
 H     3.718674     2.521929    -1.286992
 C     3.021120     0.362581     1.237173
 H     2.201907    -0.209647     1.677717
 C     5.140885     1.708480     0.073763
 H     5.992202     2.215848    -0.383797
 C     4.303564     0.193121     1.754885
 H     4.452386    -0.484883     2.595430
 C     5.378927     0.871800     1.171575
 O     6.656974     0.772983     1.583533
 C     6.956057    -0.074890     2.656657
 H     6.692026    -1.124333     2.436530
 H     8.039390    -0.008443     2.818197
 H     6.438335     0.234549     3.581913
 H     2.001632     1.779866    -2.539531
 C    -0.071171     1.994489    -2.949277
 H     0.101393     2.427181    -3.948011
 H    -0.243070     0.911990    -3.048453
 H    -0.991444     2.441886    -2.544571
 C     1.425278     3.753240    -1.921767
 H     2.257732     3.979811    -1.240792
 H     1.684964     4.164350    -2.910714
 H     0.547574     4.310664    -1.564489
 H     0.982817     3.410774     0.672690
 C    -1.100564     3.002967     0.299688
 H    -1.509091     3.716301     1.033076
 H    -1.099385     3.499659    -0.678740
 H    -1.792242     2.153961     0.242260
 C     0.274973     2.067245     2.174038
 H     1.276114     1.798961     2.538185
 H    -0.120115     2.859074     2.830296
 H    -0.384812     1.195630     2.284551
 C    -3.156538     0.518996     1.997920
 H    -2.663490     0.223089     2.925076
 C    -3.457201     0.364817    -0.376990
 H    -3.163161    -0.047391    -1.346909
 C    -4.126953     1.510717     2.057066
 H    -4.397021     1.983411     3.003246
 C    -4.444751     1.345065    -0.332166
 H    -4.926507     1.658390    -1.258569
 C    -4.784910     1.930689     0.894578
 O    -5.711116     2.896394     1.046264
 C    -6.389901     3.364871    -0.085357
 H    -6.965553     2.563307    -0.580921
 H    -7.086688     4.137622     0.263045
 H    -5.699734     3.812968    -0.821932
 H    -2.715484    -2.555952    -1.057569
 C    -1.721512    -4.102910     0.023868
 H    -2.232836    -4.876602    -0.570088
 H    -0.714062    -3.970005    -0.396096
 H    -1.616926    -4.491912     1.048161
 C    -3.885937    -2.977279     0.674940
 H    -4.481960    -2.054571     0.644197
 H    -4.457228    -3.762404     0.153024
 H    -3.794856    -3.286350     1.724992
 H    -0.591285    -0.686611     2.608512
 C    -1.768132    -2.366523     3.239500
 H    -1.312780    -2.355482     4.243469
 H    -2.747851    -1.874881     3.310021
 H    -1.942717    -3.420126     2.977735
 C     0.494551    -2.459059     2.139138
 H     1.132836    -2.046190     1.341248
 H     1.036685    -2.414395     3.097657
 H     0.331592    -3.519464     1.898944
