  98
scf done:    -2754.258645
 C    -1.682158     0.500711    -3.206671
 H    -1.750736    -0.255912    -4.007063
 H    -2.669187     0.487140    -2.715577
 C    -1.441866     1.875629    -3.819605
 H    -0.509646     1.908746    -4.406441
 H    -2.264878     2.176227    -4.495090
 H    -1.360418     2.662706    -3.050100
Ir    -0.125639     0.090597    -1.812645
 C    -2.221675     0.759676     0.973173
 C    -3.295104    -1.218191    -0.831017
 C    -1.189353    -1.991791     0.791664
 C     2.202950    -0.863996     0.842293
 C     3.160630     1.121430    -0.995493
 C     1.205832     1.889611     0.808373
 P     1.598863     0.452249    -0.272618
 P    -1.706236    -0.538722    -0.199368
 C     0.983522    -0.292242    -3.246038
 O     1.619320    -0.733487    -4.104397
 C    -3.049366     1.787524     0.487976
 H    -3.478504     1.711494    -0.515043
 C    -1.672320     0.904182     2.247097
 H    -1.015091     0.131259     2.646869
 C    -3.320515     2.906466     1.256011
 H    -3.960482     3.708207     0.883399
 C    -1.925882     2.032048     3.026105
 H    -1.455395     2.116504     4.005171
 C    -2.744130     3.047574     2.526693
 O    -3.010464     4.199485     3.175325
 C    -2.459120     4.396651     4.448591
 H    -1.356000     4.374647     4.423276
 H    -2.790213     5.387378     4.784596
 H    -2.814041     3.638438     5.168578
 C    -3.242613    -2.026435    -1.970597
 H    -2.293002    -2.144832    -2.499380
 C    -4.506085    -1.059386    -0.152842
 H    -4.546681    -0.439331     0.746767
 C    -4.396593    -2.660689    -2.419477
 H    -4.356811    -3.293484    -3.309378
 C    -5.676104    -1.682817    -0.600934
 C    -6.979879    -1.471813     0.113544
 H    -7.597853    -2.381793     0.102558
 H    -6.822024    -1.176911     1.160866
 H    -7.568258    -0.672515    -0.367506
 C    -5.602429    -2.488242    -1.742658
 H    -6.504601    -2.988795    -2.105825
 C    -1.783772    -2.323167     2.013204
 H    -2.533106    -1.666941     2.461174
 C    -0.276317    -2.872900     0.204254
 H     0.173030    -2.587975    -0.753617
 C    -1.422273    -3.505641     2.653987
 H    -1.867838    -3.758603     3.619314
 C     0.059677    -4.082771     0.817143
 C     0.979168    -5.059480     0.145474
 H     1.608397    -4.565415    -0.606781
 H     1.635567    -5.554859     0.875987
 H     0.402545    -5.848898    -0.365005
 C    -0.509209    -4.374967     2.062234
 H    -0.235104    -5.302303     2.573032
 C     1.695059    -1.061707     2.134462
 H     0.998439    -0.339064     2.560689
 C     3.077938    -1.825954     0.328313
 H     3.473517    -1.712689    -0.684832
 C     2.055248    -2.169220     2.885602
 H     1.648358    -2.332599     3.884665
 C     3.463544    -2.934717     1.078324
 H     4.152265    -3.658132     0.641497
 C     2.942450    -3.118294     2.363547
 O     3.222761    -4.175107     3.153640
 C     4.174107    -5.107290     2.721827
 H     5.157209    -4.636797     2.543949
 H     4.274749    -5.849481     3.523889
 H     3.858590    -5.624261     1.798379
 C     3.083171     1.861767    -2.177089
 H     2.122045     1.961006    -2.687972
 C     4.389857     1.019927    -0.332781
 H     4.455592     0.459016     0.603030
 C     4.225482     2.472638    -2.691110
 H     4.160201     3.049139    -3.616998
 C     5.544720     1.619047    -0.841691
 C     6.862896     1.479165    -0.136152
 H     7.345418     2.458042     0.009658
 H     6.743185     1.008672     0.849883
 H     7.561819     0.858310    -0.720250
 C     5.445144     2.348010    -2.034018
 H     6.337430     2.826043    -2.448573
 C     1.867612     2.157617     2.009932
 H     2.602160     1.453222     2.405946
 C     0.301003     2.828351     0.298707
 H    -0.204224     2.606859    -0.648853
 C     1.600365     3.341697     2.694789
 H     2.114148     3.550309     3.636828
 C     0.043683     4.031377     0.960183
 C    -0.892643     5.053320     0.385723
 H    -1.424065     4.659491    -0.491025
 H    -1.642242     5.364496     1.129163
 H    -0.342474     5.955315     0.071606
 C     0.701373     4.268780     2.174140
 H     0.513890     5.203997     2.710310
