 102
scf done:    -2381.258072
 C    -1.651271    -2.255744    -1.304444
 H    -1.527959    -3.215134    -0.767559
 H    -2.645633    -1.888009    -1.019118
 C    -1.659369    -2.521602    -2.807412
 H    -0.744617    -3.026739    -3.155243
 H    -2.510899    -3.162283    -3.101967
 H    -1.744197    -1.590864    -3.391084
Ir    -0.096732    -0.925984    -0.606940
 C    -2.635269     1.553032    -0.727001
 O    -3.191509    -0.472323     0.794604
 O    -1.577135     1.280911     1.680600
 C     2.827687    -0.026283     1.247138
 O     2.669796     0.293786    -1.507929
 O     1.638459     2.011575     0.107707
 P     1.718236     0.384119    -0.166834
 P    -1.828912     0.328574     0.365155
 C     1.062289    -2.100916    -1.489571
 O     1.759103    -2.848152    -2.014912
 H    -1.832586     2.281465    -0.933061
 C    -3.795454     2.293784    -0.061875
 H    -3.456704     2.757751     0.876457
 H    -4.571856     1.559890     0.209585
 C    -4.375976     3.339418    -1.008677
 H    -5.231249     3.844332    -0.530736
 H    -3.617935     4.122800    -1.193750
 C    -4.795845     2.722402    -2.338516
 H    -5.184636     3.498322    -3.017930
 H    -5.628615     2.017874    -2.161326
 C    -3.640349     1.972164    -2.992021
 H    -2.849778     2.692944    -3.270772
 H    -3.969023     1.496038    -3.929787
 C    -3.049961     0.922699    -2.056951
 H    -3.797726     0.134380    -1.863525
 H    -2.184089     0.424153    -2.520918
 C    -3.206230    -1.625512     1.617918
 H    -2.465400    -2.356867     1.250588
 H    -2.925172    -1.342570     2.645656
 C    -4.601740    -2.209384     1.614155
 H    -4.614465    -3.051001     2.329095
 H    -5.297546    -1.451510     2.015348
 C    -5.085461    -2.678205     0.249559
 H    -4.387078    -3.436519    -0.143397
 H    -5.033143    -1.830914    -0.453671
 C    -6.498252    -3.237174     0.281249
 H    -6.572804    -4.105037     0.956674
 H    -7.219150    -2.482985     0.636608
 H    -6.825901    -3.565058    -0.716831
 C    -0.526000     1.225224     2.629696
 H     0.439846     1.146793     2.109334
 H    -0.543073     2.211703     3.117413
 C    -0.688878     0.129023     3.669099
 H    -0.167836     0.448879     4.588526
 H    -1.758725     0.079606     3.938744
 C    -0.169259    -1.243847     3.255562
 H     0.930940    -1.203500     3.197344
 H    -0.486396    -1.482795     2.223909
 C    -0.575943    -2.355420     4.206807
 H    -0.225404    -2.155391     5.232585
 H    -1.671562    -2.465498     4.254056
 H    -0.158780    -3.324464     3.894467
 H     2.135715     0.024854     2.106918
 C     3.985827     0.927502     1.538341
 H     3.610061     1.956288     1.639527
 H     4.691579     0.927039     0.692166
 C     4.737281     0.492321     2.793282
 H     5.581503     1.175155     2.982663
 H     4.066124     0.578241     3.667463
 C     5.229022    -0.945996     2.675172
 H     5.753202    -1.251819     3.595077
 H     5.972739    -1.006791     1.859534
 C     4.079440    -1.901194     2.375595
 H     3.393387    -1.924588     3.242143
 H     4.453135    -2.930145     2.250624
 C     3.296461    -1.479172     1.136684
 H     3.927539    -1.589849     0.237482
 H     2.427177    -2.139901     0.988532
 C     3.747326     1.149151    -1.849129
 H     3.469805     1.656252    -2.790347
 H     3.883624     1.931185    -1.084839
 C     5.019456     0.352437    -2.054420
 H     5.819573     1.056724    -2.344955
 H     5.333484    -0.086398    -1.090900
 C     4.887260    -0.751778    -3.093964
 H     4.602365    -0.303361    -4.062304
 H     4.049705    -1.408531    -2.809387
 C     6.157598    -1.569559    -3.256260
 H     7.008455    -0.940881    -3.566114
 H     6.439101    -2.059273    -2.309751
 H     6.034924    -2.359837    -4.011993
 C     0.894009     2.834560    -0.776801
 H     1.596560     3.308801    -1.485805
 H     0.202112     2.210419    -1.371539
 C     0.138930     3.884069     0.008273
 H    -0.436041     4.498409    -0.707495
 H    -0.602184     3.377737     0.649080
 C     1.030944     4.774239     0.861607
 H     1.747144     5.306584     0.210596
 H     1.639962     4.132704     1.519579
 C     0.244813     5.773133     1.694389
 H    -0.357420     6.442067     1.058500
 H    -0.450997     5.259157     2.377396
 H     0.907130     6.403706     2.306565
