  90
scf done:    -2922.133475
 C    -0.793419     2.816828    -1.702580
 H    -0.540076     3.187367    -2.708415
 H    -1.891189     2.714127    -1.710858
 C    -0.356406     3.849453    -0.670807
 H     0.731831     4.011284    -0.696715
 H    -0.836175     4.832506    -0.833307
 H    -0.591885     3.543135     0.363624
Ir     0.231105     1.006029    -1.246995
 C    -0.904329     0.779666     2.190222
 C    -2.975584     1.433194     0.333655
 C    -1.871826    -1.255621     0.359013
 C     1.480821    -2.218013    -0.003104
 C     3.206189    -0.813565    -1.725614
 C     2.720810     0.202542     0.985313
 P     1.838545    -0.485474    -0.489291
 P    -1.361288     0.525162     0.426664
 C     0.855536     0.990249    -2.984411
 O     1.129307     0.886600    -4.102295
 C    -0.231716    -0.216915     2.911612
 C    -1.157373     2.005100     2.820949
 C    -0.093697     1.225058     4.847562
 C    -0.757589     2.224530     4.137996
 C     0.167731     0.002733     4.228452
 H    -0.020490    -1.184594     2.450420
 H     0.683429    -0.790460     4.775182
 H     0.217502     1.396578     5.880409
 H    -0.967856     3.186231     4.611985
 H    -1.669354     2.805520     2.283239
 H    -3.456577     1.365090     1.319729
 H    -2.726013     2.492372     0.158807
 C    -3.922787     0.924629    -0.719924
 C    -3.493508     0.545114    -1.998721
 H    -2.431212     0.619432    -2.255994
 C    -5.284351     0.811219    -0.415503
 H    -5.635805     1.082654     0.583302
 C    -4.394955     0.054768    -2.940724
 H    -4.067309    -0.246214    -3.937535
 C    -6.198419     0.331301    -1.347721
 H    -7.259246     0.232915    -1.111133
 C    -5.738296    -0.046515    -2.602754
 F    -6.604496    -0.519971    -3.499393
 H    -1.839720    -1.508760    -0.708916
 H    -1.051202    -1.829202     0.814983
 C    -3.205628    -1.630105     0.937704
 C    -3.553239    -1.362572     2.268421
 H    -2.837429    -0.872256     2.930982
 C    -4.149787    -2.269010     0.124764
 H    -3.906276    -2.468284    -0.921725
 C    -4.807692    -1.705357     2.767087
 H    -5.086887    -1.496675     3.801473
 C    -5.404089    -2.625945     0.608264
 H    -6.144620    -3.113100    -0.028218
 C    -5.720343    -2.332526     1.927969
 F    -6.923236    -2.658934     2.400743
 C     0.705956    -2.967752    -0.900080
 C     1.944202    -2.829877     1.166367
 C     0.856945    -4.897765     0.541636
 C     1.624473    -4.160536     1.440362
 C     0.403086    -4.299636    -0.635631
 H     0.327342    -2.484906    -1.806864
 H    -0.201760    -4.871594    -1.343300
 H     0.609914    -5.939739     0.757612
 H     1.989671    -4.626324     2.358812
 H     2.571690    -2.278711     1.869223
 H     2.709957    -1.343551    -2.553107
 H     3.502240     0.167875    -2.123644
 C     4.377423    -1.579685    -1.200173
 C     5.500883    -0.915250    -0.688758
 H     5.543593     0.176842    -0.719089
 C     4.365367    -2.981283    -1.159351
 H     3.503863    -3.523987    -1.554757
 C     6.574740    -1.616486    -0.145777
 H     7.452979    -1.102929     0.249252
 C     5.429820    -3.697688    -0.621342
 H     5.425392    -4.788589    -0.589351
 C     6.522426    -3.004089    -0.115596
 F     7.543713    -3.684406     0.403132
 H     2.149917    -0.125114     1.864917
 H     3.720668    -0.258177     1.056082
 C     2.795992     1.704957     0.993689
 C     3.405221     2.428403    -0.040716
 H     3.826444     1.905399    -0.900776
 C     2.254203     2.422016     2.065707
 H     1.768469     1.882704     2.881060
 C     3.482241     3.817110    -0.005153
 H     3.950901     4.383984    -0.811220
 C     2.317753     3.812011     2.116701
 H     1.889615     4.371541     2.950124
 C     2.935043     4.494120     1.077954
 F     2.998057     5.824470     1.114220
