 106
scf done:    -2833.409341
 C    -0.870357    -3.097396    -1.141349
 H    -1.312558    -3.848356    -0.465663
 H    -1.718137    -2.703266    -1.723752
 C     0.123275    -3.762355    -2.087723
 H     0.955513    -4.240714    -1.545724
 H    -0.355591    -4.543752    -2.706531
 H     0.574237    -3.035626    -2.784341
Ir     0.112010    -1.546856    -0.028916
 C    -1.167625     0.975895    -2.233432
 O    -2.962979    -0.596824    -1.081115
 O    -1.728475     1.056096     0.475039
 C     1.011320     1.256830     2.125332
 O     2.957731    -0.285798     1.212498
 O     1.699947     1.171642    -0.544639
 P     1.419254     0.130559     0.738879
 P    -1.445439    -0.041916    -0.742612
 C     0.891693    -2.919789     1.000092
 O     1.231446    -3.738188     1.731264
 H    -0.516162     1.779112    -1.841318
 C    -2.399632     1.591588    -2.896080
 H    -2.977802     2.189239    -2.176778
 H    -3.063157     0.777364    -3.230489
 C    -1.985627     2.450552    -4.087600
 H    -2.881876     2.865720    -4.576233
 H    -1.402992     3.315778    -3.722129
 C    -1.147014     1.664988    -5.090039
 H    -0.831117     2.316675    -5.920712
 H    -1.771200     0.870542    -5.537791
 C     0.067253     1.027776    -4.422986
 H     0.751808     1.820330    -4.070217
 H     0.635897     0.425188    -5.149380
 C    -0.335953     0.164506    -3.234059
 H    -0.928906    -0.700421    -3.581647
 H     0.552063    -0.248208    -2.727897
 C    -3.650931    -1.506452    -0.320184
 C    -3.299677    -1.803495     0.994001
 H    -2.426561    -1.325219     1.444370
 C    -4.755597    -2.112470    -0.919690
 H    -5.007175    -1.855915    -1.950002
 C    -4.034691    -2.743808     1.726068
 C    -3.609497    -3.085659     3.124094
 H    -3.530419    -2.182645     3.749368
 H    -4.316798    -3.774771     3.605862
 H    -2.616299    -3.563084     3.122146
 C    -5.496359    -3.032803    -0.187430
 H    -6.361981    -3.515147    -0.647743
 C    -5.138472    -3.352339     1.123280
 H    -5.723488    -4.084925     1.684807
 C    -2.628832     2.091322     0.427466
 C    -3.995263     1.845580     0.543048
 H    -4.344008     0.818587     0.664049
 C    -2.145500     3.393615     0.305132
 H    -1.070050     3.562804     0.238234
 C    -4.909606     2.902912     0.500055
 C    -6.379414     2.633602     0.641611
 H    -6.656705     1.672817     0.184435
 H    -6.666300     2.583271     1.705199
 H    -6.981532     3.426509     0.175649
 C    -3.052434     4.449058     0.265580
 H    -2.685160     5.472809     0.161864
 C    -4.422002     4.207069     0.351312
 H    -5.125010     5.042888     0.309113
 H     0.312649     1.967277     1.647451
 C     2.168736     2.030146     2.758801
 H     2.721215     2.606193     2.003394
 H     2.884200     1.308358     3.185652
 C     1.649632     2.960139     3.852143
 H     2.493899     3.492966     4.319021
 H     1.010781     3.735350     3.390987
 C     0.845938     2.206418     4.905765
 H     0.451792     2.905079     5.661598
 H     1.517715     1.512693     5.443201
 C    -0.289597     1.409787     4.272944
 H    -1.025107     2.105621     3.829992
 H    -0.830604     0.831558     5.039445
 C     0.219781     0.477217     3.180949
 H     0.874162    -0.295807     3.623221
 H    -0.612731    -0.055503     2.696857
 C     3.657640    -1.307438     0.629021
 C     3.554855    -1.586699    -0.733613
 H     2.899799    -0.978619    -1.361531
 C     4.492125    -2.064200     1.450951
 H     4.546610    -1.826001     2.514322
 C     4.271303    -2.650851    -1.294649
 C     4.108650    -2.971336    -2.751434
 H     3.107501    -3.389638    -2.944266
 H     4.207545    -2.068834    -3.373898
 H     4.852817    -3.705461    -3.089963
 C     5.216115    -3.111426     0.892302
 H     5.869658    -3.713593     1.527894
 C     5.105109    -3.407450    -0.466706
 H     5.672055    -4.240116    -0.890363
 C     2.514115     2.273034    -0.544810
 C     3.900167     2.136001    -0.500037
 H     4.335898     1.137067    -0.446137
 C     1.928055     3.536253    -0.638798
 H     0.841793     3.618345    -0.697017
 C     4.724587     3.266512    -0.510637
 C     6.216331     3.105754    -0.465111
 H     6.517649     2.402819     0.326106
 H     6.596995     2.701746    -1.417326
 H     6.720555     4.064999    -0.283490
 C     2.744450     4.662747    -0.653966
 H     2.293966     5.655930    -0.720784
 C     4.130455     4.531581    -0.580860
 H     4.762248     5.423304    -0.585515
