  98
scf done:    -3151.028164
 C     0.493046    -3.291383    -2.454846
 H    -0.082092    -3.792616    -3.249415
 H     1.475979    -3.089333    -2.910505
 C     0.631105    -4.249730    -1.276047
 H    -0.352288    -4.553151    -0.886444
 H     1.173539    -5.174264    -1.548645
 H     1.165250    -3.803423    -0.418682
Ir    -0.502109    -1.541664    -1.765991
 C     1.715494    -0.662865     1.011124
 C     3.036666    -1.624379    -1.395202
 C     1.795494     1.014107    -1.438222
 C    -1.803052     1.684505    -0.505598
 C    -3.703657    -0.249947    -1.193306
 C    -2.046048    -0.638928     1.189633
 P    -1.930422    -0.142122    -0.586623
 P     1.508424    -0.725245    -0.807252
 C    -1.680561    -1.732614    -3.169015
 O    -2.330873    -1.744467    -4.125448
 C     2.255407    -1.753493     1.712089
 H     2.574484    -2.649192     1.175313
 C     1.252441     0.422726     1.761282
 H     0.799896     1.282066     1.264155
 C     2.383331    -1.734744     3.092051
 H     2.810789    -2.580798     3.633341
 C     1.364694     0.453826     3.151078
 H     1.004259     1.330575     3.689267
 C     1.949985    -0.622393     3.828105
 O     2.121559    -0.682625     5.160238
 C     1.701886     0.399784     5.945531
 H     0.613641     0.567861     5.862882
 H     1.943247     0.145861     6.985137
 H     2.227787     1.331408     5.673000
 H     2.980863    -2.640605    -0.979490
 H     2.852374    -1.738633    -2.472675
 C     4.375718    -0.997314    -1.167784
 C     4.948086    -0.187041    -2.159239
 H     4.428018    -0.055137    -3.111743
 C     5.096101    -1.181345     0.021277
 H     4.691229    -1.817047     0.809013
 C     6.168897     0.452772    -1.965449
 H     6.610477     1.089035    -2.734205
 C     6.320656    -0.553123     0.231420
 H     6.880728    -0.692206     1.157794
 C     6.838945     0.267421    -0.763140
 F     8.006207     0.876328    -0.564432
 H     2.466406     0.871217    -2.300223
 H     0.825821     1.314093    -1.855196
 C     2.313792     2.101869    -0.537890
 C     1.543135     3.258007    -0.370110
 H     0.594085     3.343899    -0.898754
 C     3.525967     2.016797     0.158680
 H     4.147354     1.128001     0.067806
 C     1.946042     4.294579     0.467967
 H     1.331527     5.187371     0.600147
 C     3.948990     3.043893     0.996505
 H     4.891316     2.975501     1.542957
 C     3.150598     4.171325     1.146767
 F     3.548446     5.150693     1.960217
 C    -1.893797     2.449146     0.666194
 H    -1.997486     1.963049     1.637862
 C    -1.699042     2.360990    -1.725888
 H    -1.614330     1.782727    -2.652063
 C    -1.869127     3.835615     0.618633
 H    -1.928982     4.435478     1.528535
 C    -1.700318     3.753399    -1.793070
 H    -1.617638     4.241461    -2.764324
 C    -1.773744     4.502502    -0.610017
 O    -1.735977     5.846043    -0.557469
 C    -1.621080     6.568734    -1.753697
 H    -2.476372     6.384936    -2.426957
 H    -1.607838     7.630512    -1.478437
 H    -0.686278     6.326490    -2.288833
 H    -3.681951     0.208371    -2.193731
 H    -3.917008    -1.316732    -1.351009
 C    -4.723268     0.395705    -0.311306
 C    -5.393661    -0.346182     0.671482
 H    -5.202456    -1.418873     0.762270
 C    -5.000309     1.767083    -0.404843
 H    -4.493888     2.368264    -1.163243
 C    -6.303996     0.252592     1.538759
 H    -6.830447    -0.322563     2.302423
 C    -5.906786     2.381568     0.453713
 H    -6.125608     3.448535     0.384135
 C    -6.546242     1.615116     1.420060
 F    -7.414055     2.198230     2.246493
 H    -1.243490    -0.100948     1.712994
 H    -3.003385    -0.275638     1.601201
 C    -1.865179    -2.113878     1.425989
 C    -2.584504    -3.087531     0.719185
 H    -3.291550    -2.793779    -0.057091
 C    -0.954283    -2.547574     2.394150
 H    -0.375130    -1.808564     2.950707
 C    -2.409695    -4.444423     0.974383
 H    -2.963739    -5.204412     0.421006
 C    -0.759234    -3.900677     2.658328
 H    -0.040799    -4.236458     3.408167
 C    -1.493878    -4.835554     1.942841
 F    -1.313011    -6.134025     2.182956
