  54
scf done:    -1902.611904
 C     0.628430    -3.089508    -0.936032
 H    -0.056904    -3.948900    -1.006696
 H     0.946403    -2.863429    -1.965642
 C     1.839580    -3.481579    -0.096443
 H     1.583336    -3.639290     0.964490
 H     2.301168    -4.420068    -0.455958
 H     2.626134    -2.710622    -0.137269
Ir    -0.329070    -1.389148    -0.056669
 C     2.443174     0.955922     0.048215
 O     2.303034    -0.793831    -1.994207
 O     0.678772     1.204336    -1.849599
 C    -2.080030     1.694812     0.139886
 O    -2.546116     0.001724     2.049010
 O    -0.291519     1.296841     2.006450
 P    -1.275309     0.368206     1.073827
 P     1.292507    -0.025458    -0.964351
 C    -1.907256    -2.388089    -0.053187
 O    -2.909964    -2.935019    -0.198219
 C     2.350890     2.346173     0.153905
 C     3.410306     0.265793     0.790156
 C     4.179477     2.349426     1.735455
 C     4.280059     0.961689     1.625404
 C     3.215312     3.038603     1.000429
 H     1.598803     2.874432    -0.433910
 H     3.137393     4.125259     1.084450
 H     4.856491     2.895465     2.396846
 H     5.035587     0.418911     2.198211
 H     3.476727    -0.823780     0.718513
 C     3.279175    -0.087210    -2.731221
 H     2.833072     0.758632    -3.278135
 H     4.075327     0.299195    -2.073717
 H     3.716475    -0.793667    -3.449315
 C    -0.426855     0.989723    -2.713187
 H    -0.071649     0.745281    -3.726844
 H    -1.058819     0.167970    -2.338001
 H    -1.013502     1.917693    -2.739156
 C    -3.239893     1.385907    -0.580381
 C    -1.521439     2.971387     0.042410
 C    -3.268770     3.619565    -1.497067
 C    -2.115298     3.929757    -0.777883
 C    -3.833780     2.347310    -1.392674
 H    -3.675559     0.386227    -0.504029
 H    -4.741600     2.103121    -1.949370
 H    -3.732357     4.372418    -2.139241
 H    -1.676563     4.927879    -0.851639
 H    -0.625052     3.205417     0.618634
 C    -2.502999    -1.109758     2.914982
 H    -1.777547    -1.867202     2.569459
 H    -2.228564    -0.790719     3.934055
 H    -3.502821    -1.566154     2.943469
 C     0.668471     0.680575     2.837098
 H     0.259315     0.529103     3.849713
 H     0.985001    -0.295408     2.428421
 H     1.545153     1.340032     2.897365
