  62
scf done:    -1609.105453
 C    -0.635441    -3.035199    -0.651208
 H     0.137473    -3.820353    -0.669149
 H    -1.428524    -3.444512    -0.004092
 C    -1.161693    -2.839357    -2.070677
 H    -0.359093    -2.527945    -2.758086
 H    -1.603160    -3.764885    -2.486890
 H    -1.939675    -2.058109    -2.131688
Ir     0.133470    -1.171404     0.060035
 C    -2.782194     0.988452     0.163409
 C    -3.402519    -1.810388     0.528749
 C    -2.067598    -0.443375     2.603718
 C     2.911234     0.961921     0.275132
 C     0.593566     2.192860    -0.919147
 C     0.713501     1.925659     1.897834
 P     1.049087     0.956269     0.368007
 P    -2.044443    -0.602062     0.777338
 C     1.776868    -2.005794     0.138356
 O     2.768585    -2.571449     0.322789
 H    -2.022805     1.742510     0.443421
 C    -4.112513     1.419510     0.778541
 H    -4.033275     1.482017     1.875529
 H    -4.883774     0.660254     0.560224
 C    -4.569318     2.762312     0.211884
 H    -5.541805     3.043659     0.647347
 H    -3.853462     3.546074     0.519798
 C    -4.655097     2.729556    -1.309892
 H    -4.955875     3.715657    -1.698872
 H    -5.448432     2.021851    -1.611871
 C    -3.333228     2.291834    -1.930808
 H    -2.565111     3.060825    -1.729190
 H    -3.422831     2.226983    -3.027020
 C    -2.864982     0.955543    -1.365023
 H    -3.575383     0.166455    -1.670727
 H    -1.887819     0.666141    -1.785852
 H    -3.521211    -2.047762    -0.536668
 H    -3.144601    -2.740301     1.053144
 H    -4.350709    -1.426653     0.930907
 H    -3.085192    -0.287557     2.992056
 H    -1.655146    -1.372290     3.021707
 H    -1.419295     0.383195     2.920852
 H     3.198548     0.138565     0.954875
 C     3.624444     2.228283     0.747932
 H     3.332070     2.483059     1.777918
 H     3.327843     3.083685     0.113399
 C     5.141917     2.055664     0.685014
 H     5.638761     2.988515     0.998159
 H     5.439896     1.284323     1.417749
 C     5.617156     1.636083    -0.700962
 H     6.706710     1.470488    -0.696782
 H     5.431464     2.460997    -1.413122
 C     4.885924     0.388531    -1.183332
 H     5.154550    -0.473151    -0.546908
 H     5.199752     0.128853    -2.207207
 C     3.375446     0.585488    -1.134901
 H     3.098776     1.396068    -1.832877
 H     2.851172    -0.318136    -1.482426
 H     0.721723     1.747372    -1.914930
 H    -0.462988     2.470572    -0.806774
 H     1.206176     3.104338    -0.844132
 H     1.183484     2.919774     1.880807
 H    -0.372694     2.057360     2.003835
 H     1.076140     1.363187     2.770586
