  86
scf done:    -2445.811946
 C    -1.793691     0.642963    -2.792994
 H    -1.467408     0.669270    -3.845741
 H    -2.433613    -0.251619    -2.707553
 C    -2.628514     1.878945    -2.473838
 H    -2.050064     2.809495    -2.595083
 H    -3.514705     1.958777    -3.131104
 H    -3.001990     1.862528    -1.436398
Ir    -0.129418     0.646952    -1.425770
 C    -2.838870    -0.733285     0.303013
 O    -1.657715    -2.316926    -1.433249
 O    -0.401977    -1.879207     0.756809
 C     2.861034     0.119779     0.512848
 O     1.943600     2.548621     0.379801
 O     0.521664     0.879948     1.730429
 P     1.309919     1.033582     0.289348
 P    -1.228258    -1.100581    -0.427921
 C     0.890459     1.525249    -2.725713
 O     1.566093     1.915776    -3.574137
 C    -4.024338    -1.400213    -0.029151
 H    -3.995423    -2.205125    -0.766180
 C    -2.878577     0.313336     1.229762
 H    -1.950724     0.836462     1.483829
 C    -5.221102    -1.038281     0.570444
 H    -6.157657    -1.542740     0.325407
 C    -4.074671     0.681562     1.839502
 H    -4.077466     1.499148     2.560593
 C    -5.256501     0.002484     1.510516
 O    -6.461794     0.283436     2.038096
 C    -6.568844     1.322083     2.971467
 H    -6.265727     2.292859     2.541566
 H    -7.625863     1.376853     3.260747
 H    -5.961898     1.127958     3.873375
 C    -0.902371    -2.618324    -2.618346
 H    -0.558849    -1.658521    -3.043660
 C    -1.857382    -3.295835    -3.574632
 H    -2.713066    -2.640381    -3.790791
 H    -2.236797    -4.235833    -3.143891
 H    -1.350207    -3.528041    -4.522577
 C     0.309089    -3.459846    -2.273401
 H     0.989900    -2.907461    -1.609864
 H     0.007394    -4.396477    -1.778780
 H     0.867079    -3.714044    -3.186861
 C    -0.899893    -3.061348     1.401455
 H    -1.647169    -3.530979     0.738344
 C    -1.547942    -2.703179     2.725125
 H    -2.406726    -2.034238     2.583583
 H    -0.820998    -2.200778     3.380493
 H    -1.899675    -3.614053     3.232714
 C     0.275928    -4.002803     1.568261
 H     0.718859    -4.252122     0.594131
 H     1.053202    -3.534791     2.191992
 H    -0.043371    -4.936777     2.054302
 C     2.804144    -1.282558     0.454425
 H     1.836257    -1.767816     0.308418
 C     4.096266     0.736525     0.710016
 H     4.148210     1.826240     0.739955
 C     3.949001    -2.043235     0.614392
 H     3.918544    -3.134002     0.578542
 C     5.258272    -0.020326     0.865032
 H     6.210067     0.489857     1.015138
 C     5.189247    -1.417535     0.820930
 O     6.249605    -2.234916     0.959892
 C     7.516658    -1.672913     1.157961
 H     7.560426    -1.074979     2.085433
 H     8.222241    -2.509129     1.241728
 H     7.819561    -1.034063     0.309767
 C     1.234503     3.688801    -0.116759
 H     0.403735     3.323329    -0.750480
 C     2.195978     4.491215    -0.966371
 H     2.568825     3.884887    -1.803872
 H     3.056717     4.822161    -0.364143
 H     1.697879     5.381381    -1.378623
 C     0.658846     4.469748     1.046947
 H    -0.056700     3.851543     1.606569
 H     1.458108     4.789350     1.733903
 H     0.130315     5.365159     0.687207
 C     1.123999     1.156178     2.999222
 H     1.948186     1.876175     2.847696
 C     1.665824    -0.118263     3.619651
 H     2.465615    -0.556701     3.009738
 H     0.858912    -0.859671     3.714186
 H     2.069516     0.088767     4.622326
 C     0.055018     1.795798     3.863550
 H    -0.324300     2.719270     3.404690
 H    -0.790073     1.101600     3.993196
 H     0.455938     2.042768     4.857903
