  74
scf done:    -2114.484437
 C    -3.306475    -1.400459     0.219130
 H    -3.644316    -2.427533     0.429937
 H    -3.761306    -0.789331     1.012403
 C    -3.857961    -0.977154    -1.138828
 H    -3.465142    -1.605284    -1.954451
 H    -4.961393    -1.042886    -1.182267
 H    -3.598397     0.066558    -1.392574
Ir    -1.177130    -1.267048     0.118273
 C    -0.620382     2.208691    -0.422240
 C    -2.864546     1.708161     1.332068
 C    -0.022981     1.222864     2.260218
 C     2.340585    -0.444405     0.300219
 C     1.723131    -2.907890    -1.036214
 C     1.053243    -0.234024    -2.316700
 P     1.013687    -1.198604    -0.720719
 P    -1.202984     0.999076     0.834215
 C    -1.145336    -3.085831     0.406569
 O    -1.102330    -4.188575     0.754503
 C     0.573208     2.933893    -0.329115
 H     1.197324     2.863289     0.561362
 C    -1.375774     2.327649    -1.599980
 H    -2.301000     1.755731    -1.710114
 C     1.009744     3.743372    -1.377923
 H     1.942779     4.306386    -1.312867
 C    -0.961655     3.139183    -2.649325
 H    -1.545423     3.230846    -3.566918
 C     0.236557     3.835585    -2.526634
 F     0.648281     4.604168    -3.531435
 H    -3.524997     1.293388     0.551470
 C    -3.324374     1.132455     2.669659
 H    -4.405522     1.300618     2.795620
 H    -3.141323     0.051328     2.742375
 H    -2.816767     1.622621     3.513482
 C    -2.993881     3.226536     1.299937
 H    -2.729887     3.649564     0.321067
 H    -4.038073     3.507666     1.513698
 H    -2.362672     3.712705     2.056430
 H     0.947576     1.117204     1.747394
 C    -0.054567     2.573903     2.967314
 H     0.816212     2.655249     3.637750
 H    -0.024123     3.427885     2.276366
 H    -0.953157     2.681648     3.591439
 C    -0.117225     0.065308     3.250828
 H    -0.168406    -0.895834     2.715738
 H     0.766795     0.067247     3.907733
 H    -1.009318     0.144348     3.888122
 C     2.599942    -1.040604     1.545287
 H     2.052181    -1.941007     1.836069
 C     3.032708     0.727068    -0.028273
 H     2.856865     1.225114    -0.981925
 C     3.517341    -0.493013     2.433684
 H     3.720721    -0.952028     3.402870
 C     3.944942     1.298624     0.859213
 H     4.483999     2.215252     0.612097
 C     4.175977     0.680906     2.080315
 F     5.044420     1.221209     2.931792
 H     1.494816    -3.408684    -0.078841
 C     0.939981    -3.635627    -2.124311
 H     1.165940    -4.712859    -2.092819
 H    -0.146123    -3.515864    -2.000642
 H     1.213755    -3.271194    -3.126097
 C     3.227388    -3.001583    -1.262044
 H     3.800990    -2.491713    -0.475451
 H     3.530507    -4.061266    -1.261561
 H     3.529103    -2.577631    -2.229281
 H     0.985847     0.803539    -1.947282
 C     2.303065    -0.363257    -3.179807
 H     2.282597     0.397836    -3.976736
 H     3.235619    -0.230277    -2.613639
 H     2.348423    -1.345525    -3.672480
 C    -0.214429    -0.493299    -3.128006
 H    -1.111908    -0.438586    -2.491861
 H    -0.305662     0.254557    -3.931579
 H    -0.203702    -1.489564    -3.593018
