  78
scf done:    -2566.600474
 C    -1.416927     1.548197    -2.796906
 H    -1.672420     0.998376    -3.718862
 H    -2.375308     1.676106    -2.266294
 C    -0.850478     2.916684    -3.156495
 H     0.046504     2.837335    -3.791678
 H    -1.585585     3.535036    -3.704751
 H    -0.556195     3.491563    -2.261906
Ir    -0.017769     0.501546    -1.581236
 C    -2.000073     0.886501     1.362635
 C    -3.423085    -0.281738    -0.856831
 C    -1.574122    -1.874905     0.458517
 C     1.992034    -1.538164     0.690316
 C     3.401365     0.562858    -0.662572
 C     1.613129     1.286367     1.344515
 P     1.717877     0.108206    -0.062584
 P    -1.740522    -0.145406    -0.125376
 C     1.019552     0.252061    -3.097006
 O     1.573077    -0.084954    -4.052580
 C    -1.484994     0.550834     2.619353
 H    -1.015993    -0.421796     2.772860
 C    -2.577958     2.153126     1.188884
 H    -2.962619     2.445957     0.208084
 C    -1.552610     1.444352     3.684328
 H    -1.140359     1.197821     4.663881
 C    -2.661340     3.051803     2.246588
 H    -3.110254     4.039155     2.124453
 C    -2.140397     2.685162     3.482565
 F    -2.192275     3.551968     4.491347
 C    -3.512894    -0.793870    -2.156412
 C    -4.594592    -0.015129    -0.141823
 C    -5.923270    -0.750100    -2.022082
 C    -5.839743    -0.244329    -0.726545
 C    -4.756555    -1.028212    -2.734627
 H    -2.593285    -0.998510    -2.711489
 H    -4.815103    -1.424910    -3.750865
 H    -6.899877    -0.928449    -2.478504
 H    -6.750081    -0.028208    -0.162091
 H    -4.540453     0.372997     0.877702
 C    -0.795950    -2.744537    -0.312229
 C    -2.307430    -2.379844     1.538910
 C    -1.439718    -4.592160     1.101931
 C    -2.225306    -3.730754     1.868220
 C    -0.736665    -4.099259     0.004427
 H    -0.238255    -2.332104    -1.159132
 H    -0.126609    -4.770796    -0.603343
 H    -1.379036    -5.652277     1.359444
 H    -2.790849    -4.116361     2.719969
 H    -2.955568    -1.720183     2.120881
 C     2.593278    -2.533437    -0.094052
 H     2.982887    -2.283293    -1.084607
 C     1.473717    -1.894753     1.940343
 H     0.986323    -1.142528     2.561796
 C     2.698365    -3.841646     0.365335
 H     3.167092    -4.623024    -0.235624
 C     1.562816    -3.202054     2.409462
 H     1.149471    -3.491346     3.376828
 C     2.175115    -4.159897     1.613511
 F     2.248995    -5.416482     2.047861
 C     3.509040     1.590093    -1.606357
 C     4.569038     0.005632    -0.127283
 C     5.918415     1.469557    -1.497377
 C     5.819560     0.452554    -0.548924
 C     4.759991     2.041209    -2.020598
 H     2.599028     2.037577    -2.015294
 H     4.827760     2.841570    -2.761089
 H     6.900005     1.817644    -1.827785
 H     6.723422     0.002982    -0.130568
 H     4.505383    -0.786722     0.621738
 C     0.856836     2.446919     1.145265
 C     2.339012     1.140241     2.532446
 C     1.506976     3.269420     3.318316
 C     2.273013     2.121108     3.519681
 C     0.808837     3.436140     2.123816
 H     0.304291     2.562000     0.206116
 H     0.213339     4.336019     1.956033
 H     1.457468     4.038124     4.093172
 H     2.834920     1.993572     4.448186
 H     2.966862     0.259715     2.687578
