 106
scf done:    -2833.404707
 C     1.455705    -2.297366    -1.762071
 H     1.935984    -2.094147    -2.732596
 H     2.279839    -2.355060    -1.035256
 C     0.717434    -3.630248    -1.804152
 H    -0.046574    -3.656860    -2.597834
 H     1.409568    -4.472738    -1.988825
 H     0.191877    -3.848046    -0.859839
Ir     0.023638    -0.806767    -1.219772
 C     0.946047    -0.790694     2.233261
 O     2.937683    -0.538614     0.563566
 O     1.371556     1.477430     0.804760
 C    -2.950147     1.285315    -1.415411
 O    -3.043432    -0.976337    -0.153859
 O    -1.680501     0.879921     1.058161
 P    -1.867293     0.176976    -0.431018
 P     1.330660    -0.167894     0.562115
 C    -0.558796    -0.789953    -2.999359
 O    -0.826060    -0.622161    -4.107993
 H    -0.129884    -0.557095     2.328193
 C     1.695145    -0.119477     3.379888
 H     1.519380     0.966426     3.360370
 H     2.778211    -0.280228     3.240603
 C     1.261999    -0.707418     4.719680
 H     1.828706    -0.234328     5.537795
 H     0.199371    -0.459178     4.893308
 C     1.439402    -2.221434     4.752780
 H     1.090944    -2.628190     5.715766
 H     2.515866    -2.461689     4.684036
 C     0.704900    -2.890382     3.596047
 H    -0.382414    -2.743065     3.727308
 H     0.876000    -3.978956     3.605819
 C     1.131980    -2.310896     2.252159
 H     2.197017    -2.537457     2.075009
 H     0.570430    -2.778092     1.427096
 C     3.877056    -0.358834    -0.421771
 C     3.583281     0.183316    -1.668644
 H     2.552523     0.447774    -1.914399
 C     5.180422    -0.745822    -0.076801
 C     5.457412    -1.312777     1.280960
 H     6.515366    -1.589120     1.385266
 H     5.210084    -0.584921     2.070656
 H     4.843246    -2.206294     1.474552
 C     4.603670     0.348219    -2.601747
 H     4.369435     0.771996    -3.580818
 C     6.182778    -0.567967    -1.032460
 H     7.204992    -0.862197    -0.779066
 C     5.906904    -0.025535    -2.286706
 H     6.710144     0.104197    -3.015184
 C     2.453661     2.292102     0.552642
 C     3.541018     2.303321     1.422834
 H     3.529986     1.651758     2.295830
 C     2.417766     3.111664    -0.584121
 C     1.230820     3.087521    -1.491780
 H     0.383156     3.622185    -1.035428
 H     1.455771     3.564932    -2.455139
 H     0.884224     2.056598    -1.672265
 C     4.632637     3.125049     1.155859
 H     5.490853     3.121439     1.831438
 C     3.523573     3.931455    -0.825143
 H     3.518729     4.568831    -1.713426
 C     4.626283     3.938952     0.026116
 H     5.482386     4.579772    -0.195802
 H    -3.155956     0.622613    -2.279913
 C    -2.194538     2.504327    -1.937602
 H    -1.257883     2.187968    -2.419760
 H    -1.910312     3.142644    -1.083493
 C    -3.051342     3.304415    -2.912882
 H    -2.504358     4.203486    -3.239468
 H    -3.218890     2.696522    -3.820146
 C    -4.396613     3.685357    -2.305520
 H    -5.011512     4.224948    -3.043746
 H    -4.231309     4.385862    -1.466696
 C    -5.137326     2.457498    -1.788058
 H    -5.397604     1.801156    -2.638303
 H    -6.089919     2.750563    -1.318183
 C    -4.289598     1.675501    -0.789054
 H    -4.111366     2.304226     0.098549
 H    -4.821144     0.778855    -0.439307
 C    -2.749801    -2.307688     0.011509
 C    -2.203965    -2.763503     1.208966
 H    -1.977543    -2.044283     1.998546
 C    -3.081389    -3.190717    -1.027269
 C    -3.676957    -2.671882    -2.299119
 H    -4.043912    -3.494747    -2.927112
 H    -4.511764    -1.984658    -2.095315
 H    -2.932665    -2.109606    -2.884950
 C    -1.963918    -4.124808     1.386473
 H    -1.534519    -4.481793     2.325035
 C    -2.832368    -4.549909    -0.822018
 H    -3.079672    -5.254597    -1.620393
 C    -2.276306    -5.019795     0.367003
 H    -2.090321    -6.088056     0.496592
 C    -2.582087     1.390216     1.958808
 C    -3.649769     0.629239     2.435288
 H    -3.811359    -0.372983     2.039965
 C    -2.330673     2.685972     2.438063
 C    -1.168616     3.475928     1.919736
 H    -0.934775     4.316514     2.586961
 H    -0.277574     2.844928     1.797792
 H    -1.391130     3.896016     0.923989
 C    -4.509280     1.171959     3.387209
 H    -5.350313     0.578607     3.753202
 C    -3.207588     3.198818     3.398764
 H    -3.027663     4.205763     3.785388
 C    -4.291523     2.460249     3.869816
 H    -4.960117     2.889006     4.619507
