  90
scf done:    -2375.464596
 C    -1.470870     2.110925    -2.230428
 H    -1.534940     1.898741    -3.312509
 H    -2.487038     1.922382    -1.848489
 C    -1.123342     3.585151    -2.049118
 H    -0.169979     3.843355    -2.536811
 H    -1.899566     4.247056    -2.476518
 H    -1.015862     3.865731    -0.988010
Ir    -0.000777     0.864689    -1.274059
 C    -2.498406     0.679001     1.303606
 C    -3.057275    -0.872361    -1.224565
 C    -1.289778    -1.880307     0.681169
 C     2.220151    -1.636806     0.366009
 C     3.336472     0.950057    -0.118818
 C     1.246725     0.744901     1.810631
 P     1.703452     0.138739     0.139347
 P    -1.727582    -0.272009    -0.100741
 C     1.063973     1.349131    -2.702339
 O     1.631096     1.549058    -3.689137
 H    -1.659473     0.698326     2.026239
 C    -3.723397     0.081666     1.994344
 H    -3.550631    -0.967863     2.279085
 H    -4.569196     0.086105     1.286858
 C    -4.105816     0.904557     3.221907
 H    -4.987936     0.459986     3.710821
 H    -3.283042     0.860516     3.958894
 C    -4.374886     2.357299     2.848653
 H    -4.620344     2.948186     3.746071
 H    -5.264103     2.401249     2.194023
 C    -3.181959     2.963506     2.120113
 H    -2.328511     3.026539     2.817563
 H    -3.404395     3.995143     1.802832
 C    -2.764129     2.132802     0.911484
 H    -3.557973     2.165716     0.144794
 H    -1.864894     2.559885     0.444839
 C    -2.927371    -0.678867    -2.603348
 C    -4.133855    -1.635494    -0.747129
 C    -4.963564    -1.917543    -2.998412
 C    -5.085259    -2.143478    -1.626847
 C    -3.876643    -1.195731    -3.484579
 H    -2.057491    -0.132672    -2.973699
 H    -3.758656    -1.034760    -4.558742
 H    -5.709158    -2.320672    -3.688205
 H    -5.920266    -2.732275    -1.239478
 H    -4.216479    -1.866010     0.315120
 C    -1.099729    -2.987837    -0.158615
 C    -1.110192    -2.044827     2.058831
 C    -0.545927    -4.374671     1.741360
 C    -0.734705    -3.282304     2.583815
 C    -0.736665    -4.223646     0.366742
 H    -1.247505    -2.878437    -1.235787
 H    -0.602640    -5.076671    -0.302446
 H    -0.257845    -5.344587     2.153413
 H    -0.596863    -3.390330     3.662584
 H    -1.253056    -1.205072     2.738567
 H     1.377381    -2.096884     0.912038
 C     3.513853    -1.850932     1.152292
 H     3.468306    -1.365470     2.139540
 H     4.343196    -1.360894     0.614726
 C     3.823409    -3.338105     1.298916
 H     4.759515    -3.473016     1.865059
 H     3.024903    -3.821660     1.891062
 C     3.921156    -4.013767    -0.064014
 H     4.119559    -5.091794     0.052117
 H     4.785487    -3.594980    -0.610680
 C     2.652459    -3.791931    -0.879229
 H     1.813290    -4.310637    -0.385836
 H     2.753537    -4.239574    -1.881408
 C     2.307839    -2.312033    -1.005815
 H     3.089213    -1.810896    -1.604362
 H     1.361419    -2.165638    -1.550015
 C     3.936307     0.881324    -1.383453
 C     4.035135     1.572304     0.923155
 C     5.888011     2.040869    -0.556911
 C     5.298572     2.118512     0.703154
 C     5.203792     1.416969    -1.598996
 H     3.408805     0.413578    -2.215787
 H     5.652829     1.355137    -2.593058
 H     6.878183     2.469843    -0.728358
 H     5.826151     2.606340     1.526521
 H     3.591026     1.631228     1.918744
 C     0.855876     2.092359     1.893719
 C     1.200488    -0.041501     2.965561
 C     0.379277     1.838695     4.247994
 C     0.760792     0.501127     4.174946
 C     0.436003     2.636591     3.103120
 H     0.879220     2.707429     0.988643
 H     0.144000     3.688215     3.151310
 H     0.040464     2.262232     5.196472
 H     0.722572    -0.128954     5.067149
 H     1.492696    -1.091251     2.928195
