  98
scf done:    -2754.261834
 C     1.134721    -2.962258    -1.837857
 H     0.883556    -3.413555    -2.810963
 H     2.214624    -2.751300    -1.898556
 C     0.841766    -3.971793    -0.734837
 H    -0.227553    -4.228998    -0.692463
 H     1.400954    -4.916508    -0.872942
 H     1.098960    -3.590059     0.269039
Ir    -0.057243    -1.240431    -1.435678
 C     1.179025    -0.746735     1.911306
 C     3.244185    -1.264150     0.004458
 C     1.917197     1.302152     0.011177
 C    -1.604905     1.870304    -0.230792
 C    -3.201277     0.261181    -1.915150
 C    -2.597039    -0.631733     0.807797
 P    -1.792010     0.108122    -0.690186
 P     1.556442    -0.515682     0.131789
 C    -0.782868    -1.443385    -3.121181
 O    -1.131169    -1.476457    -4.222898
 C     1.633120    -1.865644     2.626515
 H     2.280649    -2.601641     2.146263
 C     0.342749     0.154700     2.576445
 H    -0.036797     1.038594     2.057406
 C     1.269403    -2.069122     3.949537
 H     1.622730    -2.939058     4.506134
 C    -0.028567    -0.032861     3.907337
 H    -0.676752     0.701910     4.385477
 C     0.433619    -1.155205     4.606170
 O     0.132726    -1.431984     5.887402
 C    -0.722906    -0.567858     6.582806
 H    -1.716156    -0.503426     6.104577
 H    -0.840743    -0.985695     7.590363
 H    -0.300817     0.449159     6.665744
 H     3.100519    -2.356716    -0.038398
 H     3.776821    -1.035362     0.939673
 C     4.070418    -0.798561    -1.167217
 C     5.454432    -0.661155    -1.004672
 H     5.902564    -0.882973    -0.032380
 C     3.511819    -0.485981    -2.413074
 H     2.430657    -0.590492    -2.560866
 C     6.260397    -0.219898    -2.050017
 H     7.337391    -0.115729    -1.896894
 C     4.317001    -0.034926    -3.458408
 H     3.859509     0.208158    -4.420667
 C     5.692766     0.101463    -3.282710
 H     6.321572     0.454587    -4.103692
 H     1.029614     1.814699     0.407536
 H     1.927556     1.513596    -1.066609
 C     3.180317     1.796016     0.655244
 C     4.244247     2.230575    -0.145201
 H     4.147568     2.186910    -1.233101
 C     3.335345     1.845275     2.048207
 H     2.519775     1.520580     2.696242
 C     5.428137     2.694547     0.423024
 H     6.244451     3.021474    -0.225453
 C     4.521190     2.303446     2.617869
 H     4.620628     2.331692     3.705833
 C     5.573796     2.728964     1.808197
 H     6.502965     3.088913     2.256640
 C    -2.174425     2.474063     0.900095
 H    -2.786372     1.889876     1.590071
 C    -0.864911     2.674131    -1.103346
 H    -0.402693     2.213790    -1.982588
 C    -1.986338     3.824186     1.158948
 H    -2.422118     4.300040     2.039407
 C    -0.683757     4.034935    -0.868859
 H    -0.094896     4.624609    -1.571606
 C    -1.239260     4.618588     0.277756
 O    -1.107875     5.914945     0.609401
 C    -0.349046     6.752796    -0.219121
 H    -0.777274     6.822821    -1.234436
 H    -0.365466     7.748319     0.241676
 H     0.698139     6.411758    -0.296465
 H    -3.422818    -0.761431    -2.253754
 H    -2.759531     0.785482    -2.776439
 C    -4.421322     0.961222    -1.409612
 C    -4.512413     2.360121    -1.438403
 H    -3.695379     2.941186    -1.872614
 C    -5.486108     0.240205    -0.851136
 H    -5.445445    -0.852306    -0.831671
 C    -5.624549     3.015319    -0.916628
 H    -5.672778     4.106443    -0.949513
 C    -6.600222     0.893829    -0.327834
 H    -7.419305     0.309968     0.099032
 C    -6.671602     2.285454    -0.355031
 H    -7.544538     2.799858     0.053710
 H    -3.636982    -0.269793     0.868233
 H    -2.059355    -0.228846     1.676738
 C    -2.530766    -2.133443     0.850226
 C    -1.800938    -2.769327     1.860589
 H    -1.270288    -2.164004     2.597860
 C    -3.192665    -2.932466    -0.091421
 H    -3.761832    -2.466003    -0.897961
 C    -1.739522    -4.158892     1.936187
 H    -1.158736    -4.629057     2.733403
 C    -3.133172    -4.321611    -0.019057
 H    -3.654387    -4.924249    -0.766613
 C    -2.407566    -4.941647     0.997679
 H    -2.357456    -6.031600     1.051489
