  98
scf done:    -2754.259233
 C    -1.384353     0.927620    -3.281187
 H    -1.745342     0.168391    -3.996352
 H    -2.293886     1.310009    -2.787644
 C    -0.705932     2.062365    -4.039821
 H     0.139751     1.702592    -4.648137
 H    -1.405686     2.577752    -4.724357
 H    -0.302140     2.831211    -3.359338
Ir    -0.046898     0.118093    -1.837781
 C    -1.895405     1.384595     0.960290
 C    -3.491565    -0.111177    -0.913469
 C    -1.739748    -1.529365     0.718307
 C     1.850058    -1.443198     0.883654
 C     3.382808     0.115081    -0.968379
 C     1.706655     1.474783     0.789833
 P     1.685360    -0.028570    -0.264406
 P    -1.782420     0.022571    -0.251933
 C     0.933076    -0.606842    -3.230733
 O     1.436748    -1.231952    -4.062267
 C    -2.338563     2.642582     0.515478
 H    -2.715507     2.756146    -0.504938
 C    -1.392457     1.287855     2.257769
 H    -1.026491     0.329070     2.627047
 C    -2.298185     3.748983     1.347815
 H    -2.643187     4.727475     1.008423
 C    -1.337771     2.394491     3.103462
 H    -0.923036     2.276598     4.104193
 C    -1.787725     3.636261     2.649392
 O    -1.754133     4.768953     3.381315
 C    -1.352439     4.688398     4.721489
 H    -0.306522     4.349432     4.818129
 H    -1.436523     5.700715     5.136609
 H    -2.001915     4.008057     5.299779
 C    -3.684359    -0.928079    -2.034438
 H    -2.813878    -1.376756    -2.520906
 C    -4.607366     0.456583    -0.295376
 H    -4.485144     1.084792     0.589799
 C    -4.961814    -1.160892    -2.526197
 H    -5.090336    -1.801278    -3.403453
 C    -5.886444     0.223929    -0.799749
 H    -6.748515     0.679636    -0.304452
 C    -6.087741    -0.584040    -1.922011
 C    -7.460618    -0.817526    -2.480594
 H    -8.242807    -0.482435    -1.784960
 H    -7.599124    -0.269554    -3.427258
 H    -7.628864    -1.883416    -2.697892
 C    -2.485517    -1.712574     1.887520
 H    -3.088109    -0.894404     2.289579
 C    -1.034880    -2.614866     0.189212
 H    -0.468498    -2.466151    -0.735736
 C    -2.470676    -2.939684     2.544113
 H    -3.043400    -3.062266     3.467747
 C    -1.050168    -3.845322     0.835289
 H    -0.490707    -4.680875     0.406686
 C    -1.744849    -4.024038     2.036646
 C    -1.673290    -5.326745     2.776033
 H    -1.683357    -6.182844     2.084716
 H    -0.735024    -5.380128     3.353260
 H    -2.509376    -5.442904     3.480272
 C     1.331423    -1.433512     2.186522
 H     0.913855    -0.512898     2.596335
 C     2.358298    -2.648742     0.390032
 H     2.748166    -2.694882    -0.630714
 C     1.332314    -2.578122     2.968339
 H     0.917946    -2.573925     3.977904
 C     2.375886    -3.804856     1.167252
 H     2.783210    -4.723173     0.743890
 C     1.852699    -3.776004     2.464673
 O     1.794312    -4.846809     3.285735
 C     2.293456    -6.072871     2.828643
 H     3.368036    -6.011819     2.582731
 H     2.156827    -6.793077     3.645227
 H     1.745800    -6.433235     1.939745
 C     3.556527     0.850542    -2.145465
 H     2.678503     1.252800    -2.658254
 C     4.518936    -0.370413    -0.311801
 H     4.415199    -0.931059     0.619923
 C     4.828768     1.076979    -2.660036
 H     4.937808     1.654927    -3.582011
 C     5.788932    -0.147328    -0.836801
 H     6.662976    -0.541138    -0.310074
 C     5.968773     0.575280    -2.021540
 C     7.335502     0.784654    -2.604035
 H     7.557796     0.020205    -3.367471
 H     7.418321     1.765797    -3.094324
 H     8.117854     0.717085    -1.834429
 C     2.441002     1.593988     1.973471
 H     2.998097     0.738571     2.363131
 C     1.040478     2.602824     0.297607
 H     0.472757     2.514883    -0.635586
 C     2.473951     2.804475     2.662729
 H     3.043728     2.876432     3.593728
 C     1.093254     3.811866     0.978842
 H     0.557881     4.676770     0.579038
 C     1.803221     3.933403     2.178827
 C     1.848696     5.247529     2.901800
 H     0.852406     5.714140     2.929924
 H     2.210700     5.132381     3.933656
 H     2.524297     5.954394     2.392299
