 102
scf done:    -3054.900804
 C     1.697191     0.102291    -3.291284
 H     1.352193     0.556638    -4.234207
 H     2.635909     0.616127    -3.040094
 C     1.967234    -1.377547    -3.525481
 H     1.049457    -1.924112    -3.799527
 H     2.693468    -1.543772    -4.342946
 H     2.388804    -1.865695    -2.630457
Ir     0.227732     0.297523    -1.769268
 C     1.535370    -1.590192     0.918750
 C     3.614859    -0.211976    -0.539119
 C     1.881576     1.317768     1.073904
 C    -1.962100     1.387618     0.785665
 C    -3.223820    -0.062064    -1.396513
 C    -1.951689    -1.523325     0.555913
 P    -1.672456     0.030004    -0.399535
 P     1.828657    -0.096148    -0.093845
 C    -0.588545     1.600487    -2.776052
 O    -0.984535     2.569345    -3.276800
 C     1.609156    -2.846193     0.293781
 H     1.918356    -2.914093    -0.752330
 C     1.085968    -1.541942     2.237030
 H     1.014188    -0.580614     2.748789
 C     1.273961    -4.005185     0.973658
 H     1.336407    -4.985067     0.496170
 C     0.709099    -2.696283     2.922487
 H     0.335232    -2.610078     3.942463
 C     0.799031    -3.938554     2.290938
 O     0.434902    -5.108228     2.854300
 C    -0.064474    -5.093304     4.161762
 H    -0.975973    -4.475777     4.242257
 H    -0.312167    -6.131743     4.416807
 H     0.684084    -4.718666     4.882549
 C     4.403761    -1.337930    -0.307315
 H     3.970085    -2.194123     0.211291
 C     4.211108     0.909649    -1.155383
 O     3.430153     1.993346    -1.290504
 C     3.875971     3.101122    -2.015962
 H     4.748442     3.579958    -1.537462
 H     3.041671     3.813351    -2.032753
 H     4.135027     2.827408    -3.053600
 C     5.738804    -1.386553    -0.708762
 H     6.332797    -2.283090    -0.519193
 C     5.546602     0.862814    -1.568264
 H     6.000809     1.724413    -2.058131
 C     6.302316    -0.287107    -1.347540
 H     7.344623    -0.313422    -1.674922
 C     1.166393     2.472876     0.759682
 H     0.539340     2.442941    -0.136666
 C     2.745979     1.334100     2.188472
 O     3.463485     0.217803     2.412586
 C     4.410104     0.189737     3.439870
 H     5.173962     0.976349     3.312177
 H     4.897083    -0.792007     3.385112
 H     3.943013     0.302959     4.434375
 C     1.259317     3.619409     1.544419
 H     0.680283     4.507248     1.284311
 C     2.827977     2.477638     2.991499
 H     3.480956     2.494343     3.864476
 C     2.082622     3.610820     2.665108
 H     2.158025     4.497573     3.299739
 C    -1.454050     1.363200     2.091848
 H    -0.939744     0.474707     2.460406
 C    -2.548908     2.569411     0.329217
 H    -2.927770     2.626165    -0.695061
 C    -1.569863     2.464447     2.926123
 H    -1.166448     2.451492     3.940042
 C    -2.655760     3.690217     1.150923
 H    -3.117623     4.595059     0.755012
 C    -2.170054     3.640609     2.462797
 O    -2.220307     4.671690     3.333796
 C    -2.782612     5.880163     2.911251
 H    -3.844258     5.765729     2.627623
 H    -2.716574     6.573660     3.759490
 H    -2.235437     6.312833     2.054479
 C    -3.124029    -0.350089    -2.758287
 H    -2.121452    -0.426002    -3.188403
 C    -4.510590     0.016296    -0.817416
 O    -4.568698     0.246601     0.505805
 C    -5.806945     0.347795     1.145146
 H    -6.408521     1.181484     0.742898
 H    -5.593827     0.544677     2.203649
 H    -6.388641    -0.587042     1.063116
 C    -4.255508    -0.531354    -3.552730
 H    -4.147654    -0.751023    -4.616696
 C    -5.648615    -0.147721    -1.614333
 H    -6.644183    -0.072781    -1.176580
 C    -5.515062    -0.420402    -2.975417
 H    -6.414209    -0.549416    -3.583307
 C    -2.590080    -1.583563     1.795267
 H    -2.867641    -0.655465     2.293947
 C    -1.654984    -2.733988    -0.104252
 O    -1.076619    -2.620643    -1.313911
 C    -0.879445    -3.761389    -2.100558
 H    -0.185021    -4.472008    -1.621067
 H    -0.437291    -3.413377    -3.041738
 H    -1.833717    -4.274159    -2.310855
 C    -2.907764    -2.804717     2.389853
 H    -3.408620    -2.823173     3.360507
 C    -1.984654    -3.959933     0.480845
 H    -1.748139    -4.894833    -0.026102
 C    -2.606368    -3.989681     1.726537
 H    -2.855621    -4.954826     2.174113
