  78
scf done:    -4206.099430
 C    -1.060572     1.558361    -2.885317
 H    -1.528686     1.017677    -3.725532
 H    -1.897117     2.042276    -2.353838
 C    -0.118254     2.626809    -3.426509
 H     0.673199     2.195392    -4.060315
 H    -0.654793     3.375493    -4.038411
 H     0.387779     3.182048    -2.618463
Ir     0.020876     0.270821    -1.581236
 C    -1.536210     1.674718     1.330883
 C    -3.389297     0.688590    -0.643719
 C    -1.992905    -1.189555     0.847182
 C     1.489273    -1.997825     0.906495
 C     3.353506    -0.613471    -0.775497
 C     1.989175     0.877876     1.141986
 P     1.656920    -0.458725    -0.073241
 P    -1.694678     0.413638     0.013680
 C     0.795517    -0.500606    -3.078392
 O     1.135010    -1.119899    -3.991249
 C    -1.040610     1.383203     2.606611
 C    -1.759381     3.014966     0.981246
 C    -1.037285     3.732050     3.173188
 C    -1.520214     4.033606     1.899667
 C    -0.793338     2.405502     3.520651
 H    -0.836538     0.349532     2.889073
 H    -0.394357     2.162908     4.508051
 H    -0.829927     4.531858     3.887356
 H    -1.704077     5.072228     1.614509
 H    -2.119509     3.262977    -0.021208
 C    -4.389174     1.355881     0.070103
 H    -4.161580     1.827105     1.028822
 C    -3.712536     0.082831    -1.863240
 H    -2.930586    -0.438043    -2.422677
 C    -5.686811     1.432701    -0.429525
 H    -6.468651     1.957379     0.121827
 C    -5.005389     0.146531    -2.369244
 H    -5.257874    -0.321364    -3.321919
 C    -5.986896     0.826781    -1.648120
Cl    -7.597363     0.920043    -2.274275
 C    -2.715645    -1.312037     2.038910
 H    -3.091150    -0.424037     2.552491
 C    -1.579353    -2.345878     0.177345
 H    -1.022753    -2.235920    -0.759213
 C    -2.963498    -2.566192     2.588705
 H    -3.504660    -2.669088     3.530571
 C    -1.847835    -3.604905     0.700385
 H    -1.515080    -4.506825     0.186253
 C    -2.516027    -3.704301     1.918285
Cl    -2.772763    -5.265294     2.622324
 C     1.739113    -3.219037     0.263407
 C     0.967800    -2.016288     2.205310
 C     0.996118    -4.432183     2.217365
 C     0.724000    -3.224261     2.855418
 C     1.503285    -4.424999     0.917855
 H     2.120479    -3.225184    -0.761573
 H     1.709399    -5.367329     0.404526
 H     0.792223    -5.377773     2.724285
 H     0.305962    -3.220179     3.864557
 H     0.741372    -1.078557     2.714451
 C     4.348211    -1.396328    -0.177031
 H     4.113005    -2.014859     0.691853
 C     3.692513     0.179761    -1.876668
 H     2.926718     0.806871    -2.341216
 C     5.645454    -1.407367    -0.679847
 H     6.418734    -2.024396    -0.219481
 C     4.987539     0.184052    -2.385081
 H     5.248000     0.800539    -3.246667
 C     5.957921    -0.616164    -1.784834
Cl     7.569392    -0.627701    -2.414884
 C     2.668875     0.691470     2.350467
 H     3.014757    -0.302815     2.641537
 C     1.611783     2.173901     0.771124
 H     1.096287     2.323262    -0.184530
 C     2.907436     1.765679     3.203028
 H     3.415739     1.621602     4.157778
 C     1.866091     3.259340     1.600202
 H     1.557306     4.265515     1.315984
 C     2.490665     3.041711     2.825936
Cl     2.728790     4.373215     3.907266
