  94
scf done:    -2750.348134
 C    -1.295046     1.840072     2.334976
 H    -1.119900     2.873356     2.675967
 H    -2.326464     1.819762     1.954311
 C    -1.154681     0.886013     3.516025
 H    -0.144495     0.927416     3.956816
 H    -1.867473     1.117905     4.331457
 H    -1.333128    -0.162484     3.222633
Ir     0.153763     1.216569     0.882569
 O    -0.897892    -0.448472    -1.740603
 C    -2.194806    -1.460563     0.416590
 C    -2.898011     1.158495    -0.743904
 O     2.239214     0.747557    -1.807011
 C     3.489481     0.246335     0.596909
 C     1.774202    -1.571722    -0.635514
 P     1.874469     0.214172    -0.289174
 P    -1.488805     0.078059    -0.295695
 C     1.100463     2.768367     1.242120
 O     1.586381     3.816471     1.305721
 C    -1.586721    -0.553849    -2.987630
 H    -2.481069     0.090406    -2.954156
 C    -2.016217    -1.985126    -3.246660
 H    -2.718112    -2.328231    -2.475745
 H    -1.140626    -2.652935    -3.253429
 H    -2.514007    -2.056895    -4.226075
 C    -0.647552    -0.022916    -4.050792
 H    -0.367411     1.014166    -3.826780
 H     0.273259    -0.623386    -4.081695
 H    -1.126430    -0.057558    -5.040945
 C    -1.671288    -2.688777     0.021542
 H    -0.922420    -2.709901    -0.770282
 C    -3.154979    -1.432511     1.447123
 O    -3.644882    -0.220298     1.762225
 C    -4.526082    -0.079341     2.838738
 H    -5.477726    -0.610550     2.659761
 H    -4.727097     0.994891     2.934602
 H    -4.079131    -0.444656     3.778986
 C    -2.082311    -3.879672     0.624818
 H    -1.654093    -4.828929     0.296517
 C    -3.565061    -2.618908     2.060433
 H    -4.308891    -2.600480     2.857409
 C    -3.025500    -3.838765     1.644922
 H    -3.354662    -4.760793     2.130649
 C    -2.690725     2.536999    -0.666582
 H    -1.707670     2.879213    -0.326186
 C    -4.163332     0.685345    -1.149410
 O    -4.307178    -0.649013    -1.252677
 C    -5.566647    -1.200398    -1.508225
 H    -6.306366    -0.891359    -0.749516
 H    -5.442124    -2.289771    -1.462281
 H    -5.942665    -0.923263    -2.508721
 C    -3.703195     3.443490    -0.975607
 H    -3.517198     4.516835    -0.906211
 C    -5.188715     1.590182    -1.441025
 H    -6.171883     1.231852    -1.746776
 C    -4.951758     2.962052    -1.353871
 H    -5.761888     3.657210    -1.588650
 C     2.574440     2.130722    -1.954575
 H     2.943787     2.513364    -0.984077
 C     1.348269     2.926809    -2.353566
 H     0.538431     2.743121    -1.631078
 H     1.005302     2.629605    -3.356119
 H     1.572984     4.003938    -2.365816
 C     3.701637     2.208366    -2.962736
 H     4.561548     1.618399    -2.617979
 H     3.369284     1.801708    -3.930783
 H     4.017427     3.251546    -3.113424
 C     3.511899     0.654351     1.930843
 H     2.571450     0.991880     2.375578
 C     4.687849    -0.225157     0.015286
 O     4.625702    -0.639057    -1.263256
 C     5.729877    -1.272484    -1.841028
 H     6.591464    -0.589304    -1.944486
 H     5.413320    -1.596534    -2.840632
 H     6.042608    -2.157454    -1.259979
 C     4.682368     0.623550     2.687379
 H     4.671531     0.950080     3.729063
 C     5.866704    -0.252071     0.768781
 H     6.797445    -0.606039     0.325074
 C     5.857841     0.174043     2.096633
 H     6.787932     0.147324     2.670157
 C     1.953647    -2.109419    -1.906457
 H     2.162459    -1.423396    -2.728505
 C     1.507341    -2.427154     0.448230
 O     1.309582    -1.819068     1.631900
 C     0.872989    -2.559875     2.739012
 H    -0.075434    -3.079912     2.522373
 H     0.708451    -1.835104     3.545646
 H     1.632461    -3.293410     3.061142
 C     1.871113    -3.486683    -2.112336
 H     2.005504    -3.900925    -3.114037
 C     1.453079    -3.810660     0.253306
 H     1.250612    -4.479587     1.089815
 C     1.630037    -4.329823    -1.028910
 H     1.575326    -5.411243    -1.177743
