  90
scf done:    -3294.683833
 C     1.259452    -0.775871     3.522710
 H     0.740351    -1.626802     4.001987
 H     2.178388    -1.210698     3.102598
 C     1.631797     0.256154     4.582191
 H     0.756255     0.629276     5.136566
 H     2.331653    -0.160446     5.329044
 H     2.122376     1.144386     4.149804
Ir    -0.081389    -0.135776     1.962663
 C     2.827790     0.470411     0.067774
 O     2.431189    -2.073454     0.914579
 O     1.111561    -1.160053    -1.086719
 C    -2.936658    -0.494006    -0.156078
 O    -2.372783     1.901635     1.015018
 O    -1.138575     1.107331    -1.093745
 P    -1.584430     0.551193     0.415409
 P     1.557343    -0.733846     0.451929
 C    -1.213756     0.467993     3.340178
 O    -1.894293     0.841811     4.182629
 C     3.277044     1.290172     1.115783
 H     2.799571     1.219761     2.096808
 C     3.427109     0.575195    -1.188532
 H     3.080960    -0.058788    -2.006195
 C     4.301799     2.195261     0.905853
 H     4.657909     2.848535     1.704248
 C     4.451897     1.489770    -1.409435
 H     4.891282     1.566226    -2.403583
 C     4.890167     2.313099    -0.364157
 O     5.849508     3.241034    -0.487236
 C     6.382761     3.501513    -1.759829
 H     5.593197     3.807132    -2.466035
 H     7.095544     4.326139    -1.636220
 H     6.918938     2.626119    -2.165665
 C     3.581840    -2.440780     0.258936
 C     3.514446    -3.241698    -0.880594
 H     2.542575    -3.572381    -1.250510
 C     4.813931    -2.011967     0.752166
 H     4.840480    -1.380142     1.641258
 C     4.687172    -3.614132    -1.533337
 H     4.666370    -4.242339    -2.425539
 C     5.987226    -2.381124     0.102287
 H     6.964487    -2.057609     0.464482
 C     5.908225    -3.175832    -1.035610
 F     7.030540    -3.526779    -1.663236
 C     0.076552    -2.032796    -1.309376
 C    -0.217980    -3.081825    -0.433615
 H     0.384265    -3.237620     0.462567
 C    -0.682480    -1.844952    -2.463363
 H    -0.433996    -1.017239    -3.127056
 C    -1.294271    -3.922539    -0.704510
 H    -1.555084    -4.737189    -0.027142
 C    -1.758211    -2.683442    -2.733255
 H    -2.384582    -2.539803    -3.614620
 C    -2.056869    -3.706437    -1.842473
 F    -3.112427    -4.491412    -2.080003
 C    -3.695998    -0.214686    -1.306056
 H    -3.448308     0.652674    -1.920113
 C    -3.260785    -1.613044     0.612123
 H    -2.659544    -1.839661     1.498264
 C    -4.742054    -1.040915    -1.671350
 H    -5.336780    -0.845567    -2.565459
 C    -4.314835    -2.451005     0.254024
 H    -4.532315    -3.327359     0.864040
 C    -5.053698    -2.174961    -0.901966
 O    -6.061336    -2.935868    -1.354958
 C    -6.321301    -4.160531    -0.721778
 H    -6.652256    -4.021208     0.322162
 H    -7.130163    -4.639639    -1.287263
 H    -5.432304    -4.813163    -0.738073
 C    -3.447432     2.478255     0.390748
 C    -3.252019     3.431715    -0.608949
 H    -2.236375     3.714530    -0.890741
 C    -4.738020     2.113667     0.775762
 H    -4.864201     1.363597     1.558091
 C    -4.351744     4.016059    -1.232592
 H    -4.229232     4.765699    -2.016339
 C    -5.839359     2.696418     0.156908
 H    -6.859135     2.426841     0.436675
 C    -5.631572     3.638054    -0.844292
 F    -6.684550     4.194428    -1.443719
 C    -0.099807     1.955644    -1.334660
 C     0.451379     2.788223    -0.357114
 H     0.057713     2.772308     0.660992
 C     0.397349     1.983134    -2.639893
 H    -0.062194     1.339987    -3.391535
 C     1.523710     3.617145    -0.680918
 H     1.986401     4.257444     0.071165
 C     1.463099     2.813602    -2.964974
 H     1.876201     2.839867    -3.974786
 C     2.022737     3.610755    -1.973858
 F     3.076529     4.379759    -2.274691
