  90
scf done:    -4735.801131
 C    -1.352716    -0.529556    -3.662174
 H    -0.941820    -1.427314    -4.160188
 H    -2.313448    -0.863516    -3.241875
 C    -1.611925     0.558870    -4.698513
 H    -0.704458     0.833697    -5.258932
 H    -2.366009     0.243295    -5.441997
 H    -1.985873     1.491676    -4.243893
Ir     0.070162    -0.069179    -2.109994
 C    -2.826730     0.637207    -0.205255
 O    -2.496936    -1.912866    -1.084520
 O    -1.177223    -1.054085     0.936154
 C     2.900500    -0.688847    -0.004761
 O     2.510372     1.763017    -1.104110
 O     1.186921     1.001874     0.964391
 P     1.621322     0.453262    -0.552305
 P    -1.594075    -0.598893    -0.604125
 C     1.253065     0.436747    -3.486025
 O     1.972128     0.740707    -4.324418
 C    -3.215556     1.521143    -1.224782
 H    -2.699904     1.491667    -2.188159
 C    -3.472325     0.693913     1.032429
 H    -3.170378     0.014270     1.830688
 C    -4.235978     2.430215    -1.010839
 H    -4.550360     3.127787    -1.788926
 C    -4.495542     1.608294     1.256445
 H    -4.977024     1.639267     2.233287
 C    -4.886203     2.482793     0.233263
 O    -5.860589     3.394020     0.351867
 C    -6.523354     3.527306     1.581949
 H    -5.820567     3.795925     2.388209
 H    -7.252857     4.336883     1.456640
 H    -7.059207     2.602502     1.857791
 C    -3.655739    -2.262444    -0.437832
 C    -3.610734    -3.108116     0.669541
 H    -2.649545    -3.491517     1.016384
 C    -4.874242    -1.768818    -0.902556
 H    -4.884948    -1.102474    -1.766577
 C    -4.790881    -3.457530     1.320322
 H    -4.772855    -4.119257     2.187599
 C    -6.054713    -2.114657    -0.254162
 H    -7.014614    -1.732034    -0.603915
 C    -6.006190    -2.954305     0.858460
Cl    -7.474604    -3.378161     1.675650
 C    -0.196333    -1.973530     1.186384
 C     0.147266    -2.976353     0.276444
 H    -0.372320    -3.058102    -0.679552
 C     0.457513    -1.885743     2.415135
 H     0.168655    -1.097134     3.109799
 C     1.166829    -3.870796     0.590547
 H     1.451943    -4.649536    -0.117857
 C     1.474478    -2.778285     2.728178
 H     2.005158    -2.706474     3.678386
 C     1.829795    -3.764954     1.808915
Cl     3.114005    -4.866132     2.188851
 C     3.630446    -0.524663     1.184982
 H     3.377283     0.289930     1.865461
 C     3.228676    -1.742970    -0.859377
 H     2.646593    -1.885285    -1.775337
 C     4.662995    -1.389220     1.497075
 H     5.238642    -1.280436     2.417770
 C     4.269133    -2.617575    -0.556405
 H     4.495753    -3.436717    -1.238387
 C     4.992300    -2.444594     0.630360
 O     6.003893    -3.233527     1.020215
 C     6.311930    -4.368524     0.256843
 H     6.648811    -4.100378    -0.759711
 H     7.129970    -4.882688     0.776473
 H     5.446546    -5.049236     0.184568
 C     3.617353     2.233922    -0.451198
 C     3.483604     3.168822     0.575312
 H     2.489971     3.525004     0.852701
 C     4.880502     1.778566    -0.829250
 H     4.960178     1.043964    -1.632220
 C     4.615852     3.642232     1.232458
 H     4.526982     4.373993     2.036888
 C     6.014050     2.249416    -0.175917
 H     7.007118     1.897057    -0.458366
 C     5.875072     3.175890     0.857185
Cl     7.284534     3.757586     1.681693
 C     0.202611     1.911670     1.198577
 C    -0.264788     2.800585     0.227223
 H     0.152453     2.780034    -0.781326
 C    -0.328229     1.945694     2.490291
 H     0.063693     1.255501     3.238268
 C    -1.281817     3.698052     0.544093
 H    -1.664312     4.384306    -0.212202
 C    -1.337726     2.844346     2.808459
 H    -1.762164     2.872216     3.813132
 C    -1.816747     3.712776     1.827785
Cl    -3.089807     4.826672     2.216576
