  94
scf done:    -2826.159778
 C    -0.100076    -3.465267    -0.328025
 H     0.183970    -4.170981     0.468751
 H    -1.202080    -3.511287    -0.365066
 C     0.473645    -3.916879    -1.666221
 H     1.575774    -3.918525    -1.661839
 H     0.143118    -4.937995    -1.931893
 H     0.155247    -3.256989    -2.490285
Ir     0.661002    -1.497642     0.109766
 C    -2.347169    -1.211409    -1.773684
 O    -2.557871    -1.557569     0.818579
 O    -1.797281     0.752129     0.006823
 C     1.487961     1.628428     1.697519
 O     3.183572     0.644202    -0.045112
 O     0.920190     1.564942    -0.956671
 P     1.536911     0.575679     0.219298
 P    -1.484200    -0.866965    -0.224512
 C     2.097056    -2.336144     1.004321
 O     2.873367    -2.850477     1.675247
 C    -1.613903    -1.002070    -2.947305
 C    -3.690553    -1.591821    -1.841161
 C    -3.570122    -1.533296    -4.254510
 C    -4.297739    -1.752869    -3.084230
 C    -2.227794    -1.158997    -4.187409
 H    -0.561111    -0.710397    -2.878260
 H    -1.656204    -0.995267    -5.103774
 H    -4.051584    -1.661073    -5.227158
 H    -5.347497    -2.050235    -3.140706
 H    -4.250318    -1.752602    -0.918286
 C    -2.245982    -1.810557     2.134073
 C    -1.423834    -0.960232     2.869174
 H    -1.003541    -0.067432     2.404193
 C    -2.789535    -2.956086     2.710367
 H    -3.421797    -3.608242     2.105992
 C    -1.106673    -1.256727     4.199601
 C    -0.195035    -0.341751     4.963493
 H     0.715718    -0.119303     4.386180
 H    -0.681306     0.625729     5.167394
 H     0.102590    -0.780336     5.926057
 C    -2.490257    -3.243569     4.038386
 H    -2.905537    -4.142167     4.500867
 C    -1.651578    -2.407691     4.776142
 H    -1.411592    -2.655469     5.813184
 C    -3.063047     1.284330    -0.073623
 C    -3.537759     1.733008    -1.302875
 H    -2.907970     1.613582    -2.187363
 C    -3.837512     1.394498     1.080510
 H    -3.445449     1.026556     2.030377
 C    -4.811044     2.303854    -1.406088
 C    -5.321876     2.758855    -2.742041
 H    -4.648926     3.504147    -3.194412
 H    -5.385084     1.912716    -3.444937
 H    -6.321042     3.208587    -2.660967
 C    -5.100942     1.969541     0.982773
 H    -5.720189     2.064732     1.877845
 C    -5.584341     2.418430    -0.246388
 H    -6.581050     2.862767    -0.307799
 C     2.570097     1.692820     2.581096
 C     0.295547     2.296946     2.006600
 C     1.277130     3.097911     4.063141
 C     0.196376     3.032962     3.183598
 C     2.460802     2.425633     3.761661
 H     3.498442     1.174400     2.334999
 H     3.309113     2.475151     4.448484
 H     1.196294     3.674316     4.987849
 H    -0.732465     3.560369     3.413023
 H    -0.551819     2.238052     1.320811
 C     3.768092    -0.271296    -0.885560
 C     3.184426    -0.599741    -2.108256
 H     2.270341    -0.088344    -2.418061
 C     4.952688    -0.877336    -0.473669
 H     5.383484    -0.609070     0.492253
 C     3.761121    -1.574086    -2.930065
 C     3.084888    -1.966226    -4.210900
 H     2.187129    -2.570807    -4.001016
 H     2.758479    -1.082180    -4.779561
 H     3.747619    -2.562430    -4.853411
 C     5.540466    -1.830680    -1.299435
 H     6.467305    -2.316642    -0.985761
 C     4.948210    -2.183462    -2.511874
 H     5.413626    -2.944575    -3.143095
 C     1.043066     2.930030    -1.027724
 C     2.260193     3.573930    -0.822899
 H     3.146254     2.980514    -0.590552
 C    -0.111091     3.654628    -1.326969
 H    -1.051313     3.119610    -1.465355
 C     2.340960     4.969355    -0.906600
 C     3.653006     5.656106    -0.660542
 H     3.992176     5.495057     0.375391
 H     4.439988     5.261962    -1.322261
 H     3.579285     6.739725    -0.827116
 C    -0.029183     5.039134    -1.421404
 H    -0.926974     5.617268    -1.653311
 C     1.184636     5.693749    -1.210562
 H     1.235309     6.783268    -1.280725
