  90
scf done:    -2525.362560
 C     0.969674    -2.912733    -1.353170
 H     0.685376    -3.434826    -2.280588
 H     2.054699    -2.745438    -1.448287
 C     0.661768    -3.814286    -0.164204
 H    -0.413992    -4.033937    -0.088246
 H     1.190447    -4.784123    -0.227576
 H     0.943902    -3.356855     0.800442
Ir    -0.153672    -1.121672    -1.080497
 C     1.164759    -0.392377     2.188429
 C     3.174567    -1.129275     0.291799
 C     1.921943     1.470463     0.104175
 C    -1.576156     2.138532    -0.145901
 C    -3.254149     0.444162    -1.640217
 C    -2.623483    -0.232434     1.143383
 P    -1.829648     0.343313    -0.428673
 P     1.513793    -0.318601     0.385440
 C    -0.903494    -1.428521    -2.739808
 O    -1.264269    -1.532849    -3.832733
 C     0.380693     0.600879     2.792856
 C     1.591135    -1.473471     2.969358
 C     0.472197    -0.561272     4.909990
 C     1.246782    -1.556874     4.318050
 C     0.041426     0.520440     4.141210
 H     0.031954     1.456704     2.209643
 H    -0.564145     1.309576     4.593643
 H     0.204896    -0.626559     5.967036
 H     1.590050    -2.408665     4.909980
 H     2.196007    -2.267593     2.527939
 H     2.995618    -2.216146     0.343031
 H     3.733258    -0.841352     1.194835
 C     3.990046    -0.790100    -0.929799
 C     5.380144    -0.679772    -0.803191
 H     5.840907    -0.828413     0.177096
 C     3.415930    -0.571081    -2.188358
 H     2.329685    -0.655412    -2.307840
 C     6.177320    -0.355485    -1.896899
 H     7.259519    -0.269677    -1.771870
 C     4.212663    -0.237090    -3.282935
 H     3.743468    -0.065197    -4.254818
 C     5.594822    -0.126714    -3.143216
 H     6.217031     0.134803    -4.002576
 H     1.063924     2.045484     0.480233
 H     1.904331     1.590144    -0.987555
 C     3.220864     1.971749     0.667077
 C     4.265685     2.315711    -0.199398
 H     4.127386     2.198047    -1.277246
 C     3.428803     2.113558     2.046578
 H     2.629238     1.861344     2.745000
 C     5.482467     2.781864     0.292214
 H     6.282799     3.037474    -0.406193
 C     4.647546     2.573715     2.540104
 H     4.788141     2.675574     3.619061
 C     5.680619     2.908695     1.665370
 H     6.635583     3.270672     2.053931
 C    -0.860873     2.827758    -1.135715
 C    -2.069787     2.850571     0.952358
 C    -1.129494     4.898445     0.074869
 C    -1.837592     4.221868     1.065576
 C    -0.646397     4.198676    -1.032420
 H    -0.458321     2.266766    -1.985402
 H    -0.086670     4.722550    -1.810887
 H    -0.951171     5.972500     0.164910
 H    -2.225299     4.766402     1.929925
 H    -2.654040     2.344508     1.723179
 H    -3.512154    -0.595119    -1.890364
 H    -2.812030     0.881509    -2.548573
 C    -4.444123     1.221331    -1.176031
 C    -4.500745     2.613424    -1.332798
 H    -3.679515     3.130375    -1.834821
 C    -5.514573     0.583160    -0.533889
 H    -5.501175    -0.503633    -0.414256
 C    -5.585604     3.343133    -0.854257
 H    -5.607955     4.427277    -0.988649
 C    -6.601056     1.311699    -0.053282
 H    -7.425413     0.791751     0.440694
 C    -6.638583     2.696221    -0.208510
 H    -7.490206     3.269013     0.166060
 H    -3.648250     0.171617     1.196047
 H    -2.050271     0.221438     1.963223
 C    -2.607536    -1.727434     1.309963
 C    -1.893308    -2.303371     2.366435
 H    -1.338992    -1.659359     3.051761
 C    -3.304068    -2.577443     0.440467
 H    -3.863266    -2.159594    -0.398905
 C    -1.880594    -3.683502     2.555600
 H    -1.311801    -4.107428     3.386675
 C    -3.293601    -3.957074     0.627091
 H    -3.841779    -4.599997    -0.065551
 C    -2.582662    -4.516710     1.688137
 H    -2.570936    -5.599550     1.831932
