  58
scf done:    -1830.761984
 C     3.787630     0.498434    -1.253789
 H     3.460960     0.679183    -2.295881
 H     4.032853     1.501339    -0.848461
 C     5.068780    -0.327863    -1.264833
 H     4.924603    -1.298206    -1.766567
 H     5.895398     0.186949    -1.789358
 H     5.420445    -0.547463    -0.243937
Ir     2.144600    -0.268998    -0.130457
 C    -0.552254     2.049244    -0.090506
 C     1.903756     3.094506     1.037905
 C     1.580095     2.829792    -1.776482
 C    -1.162404    -1.295165     0.858276
 C     0.967327    -2.581651     2.211566
 C     0.345375     0.094578     2.881948
 P     0.556709    -0.980037     1.409532
 P     1.264169     1.922419    -0.215486
 C     2.640037    -2.013056    -0.506484
 O     2.841854    -3.107864    -0.817569
 C    -1.225231     2.804485     0.879071
 H    -0.666417     3.385056     1.616723
 C    -1.317917     1.332219    -1.016838
 H    -0.815398     0.706982    -1.760270
 C    -2.612896     2.829125     0.927665
 H    -3.144435     3.404418     1.687953
 C    -2.707603     1.371943    -0.998850
 H    -3.266645     0.789683    -1.730534
 C    -3.367299     2.112339    -0.010190
 O    -4.703588     2.183063     0.120168
 C    -5.516004     1.515295    -0.810045
 H    -5.373026     0.422314    -0.773949
 H    -6.553546     1.745373    -0.536599
 H    -5.333077     1.873098    -1.838591
 H     1.683929     2.725660     2.049002
 H     2.996705     3.130639     0.923193
 H     1.491086     4.106620     0.910509
 H     1.119073     3.827258    -1.735795
 H     2.662293     2.916085    -1.941534
 H     1.148794     2.260966    -2.611396
 C    -2.307495    -0.905692     1.565056
 H    -2.219951    -0.371952     2.513179
 C    -1.331915    -1.958800    -0.360431
 H    -0.447210    -2.239919    -0.940022
 C    -3.576543    -1.165040     1.066764
 H    -4.471283    -0.844629     1.604028
 C    -2.598838    -2.241160    -0.866232
 H    -2.689107    -2.759828    -1.820983
 C    -3.731671    -1.833636    -0.152976
 O    -5.003263    -2.013170    -0.577981
 C    -5.222708    -2.716515    -1.769673
 H    -4.815035    -3.741004    -1.719826
 H    -6.310014    -2.773090    -1.906554
 H    -4.779399    -2.201521    -2.640530
 H     1.012406    -3.366455     1.443426
 H     1.961175    -2.500243     2.676353
 H     0.217722    -2.856635     2.968477
 H    -0.260585    -0.386847     3.664069
 H     1.345800     0.305352     3.286305
 H    -0.128809     1.041474     2.589638
