  78
scf done:    -2415.298917
 C     1.843510    -1.383106    -2.337926
 H     1.599310    -1.553098    -3.399316
 H     2.615077    -0.594585    -2.339175
 C     2.432049    -2.650762    -1.727273
 H     1.717738    -3.489875    -1.751270
 H     3.340799    -2.982230    -2.263487
 H     2.720630    -2.502153    -0.673385
Ir     0.101213    -0.886422    -1.174188
 C     2.864234     0.368393     0.558632
 O     2.084081     1.765768    -1.529478
 O     0.623661     1.925604     0.570964
 C    -2.898558     0.439621     0.316072
 O    -2.406712    -2.084881     0.686084
 O    -0.832032    -0.439262     1.888549
 P    -1.511628    -0.734447     0.417332
 P     1.387652     0.833069    -0.382718
 C    -0.945952    -1.825760    -2.411501
 O    -1.608224    -2.259032    -3.248474
 C     2.656461    -0.452599     1.676719
 H     1.635438    -0.741456     1.946770
 C     4.161981     0.736693     0.196602
 H     4.313605     1.362579    -0.684763
 C     3.734688    -0.883115     2.440674
 H     3.602060    -1.519755     3.317250
 C     5.249106     0.306238     0.954096
 H     6.274157     0.576841     0.694411
 C     5.018338    -0.494848     2.066066
 F     6.053809    -0.908182     2.791274
 C     1.481577     1.948346    -2.823146
 H     0.992904     0.995742    -3.095434
 C     2.608900     2.246127    -3.785100
 H     3.336880     1.422426    -3.790585
 H     3.130196     3.172943    -3.498328
 H     2.218449     2.369365    -4.805862
 C     0.431245     3.038119    -2.763808
 H    -0.384704     2.756007    -2.082901
 H     0.871028     3.988065    -2.421682
 H    -0.006636     3.197776    -3.760289
 C     1.254889     3.129951     1.036506
 H     2.108719     3.352801     0.373498
 C     1.747583     2.945893     2.458615
 H     2.500192     2.149567     2.523918
 H     0.909091     2.685633     3.121487
 H     2.201137     3.878991     2.825172
 C     0.231114     4.240676     0.917233
 H    -0.098538     4.359592    -0.124180
 H    -0.650171     4.014534     1.537223
 H     0.657752     5.196097     1.256946
 C    -2.590839     1.772335     0.011645
 H    -1.544966     2.057540    -0.123080
 C    -4.233649     0.066689     0.500584
 H    -4.471100    -0.975450     0.720078
 C    -3.596065     2.727595    -0.083060
 H    -3.376613     3.772127    -0.312107
 C    -5.249875     1.014509     0.401848
 H    -6.299210     0.747569     0.540478
 C    -4.915786     2.332430     0.114378
 F    -5.883705     3.240655     0.020228
 C    -1.880333    -3.398165     0.457730
 H    -0.963095    -3.294664    -0.152755
 C    -2.917406    -4.174439    -0.323993
 H    -3.128587    -3.679480    -1.282428
 H    -3.856295    -4.245255     0.247285
 H    -2.560565    -5.193928    -0.532569
 C    -1.518673    -4.033929     1.784164
 H    -0.736012    -3.450564     2.288691
 H    -2.398952    -4.084844     2.443859
 H    -1.138989    -5.055065     1.631233
 C    -1.578330    -0.373571     3.110484
 H    -2.514276    -0.945871     2.981068
 C    -1.901885     1.068506     3.452822
 H    -2.540208     1.532099     2.690217
 H    -0.972807     1.652511     3.526541
 H    -2.425254     1.121775     4.419278
 C    -0.734526    -1.034962     4.181897
 H    -0.511171    -2.078610     3.921887
 H     0.218102    -0.495197     4.300114
 H    -1.258820    -1.024397     5.148964
