 116
scf done:    -3362.265380
 C    -1.341718     0.806935    -3.177149
 H    -0.912376     0.563849    -4.165216
 H    -2.229486     0.165674    -3.086700
 C    -1.752322     2.275667    -3.174276
 H    -0.887493     2.935519    -3.353549
 H    -2.504567     2.502794    -3.953691
 H    -2.186493     2.583097    -2.209450
Ir     0.053493     0.270127    -1.647077
 C    -1.519456     1.394312     1.174631
 C    -3.484301     0.450535    -0.836643
 C    -2.143481    -1.430148     0.799461
 C     1.541951    -1.706617     1.003140
 C     3.452019    -0.631820    -0.808110
 C     2.147009     1.202618     0.979618
 P     1.774585    -0.264799    -0.104639
 P    -1.814196     0.124728    -0.121341
 C     1.269603     0.888156    -2.863433
 O     1.977979     1.327305    -3.670454
 C    -0.833212     2.552069     0.779174
 H    -0.485052     2.622961    -0.256850
 C    -1.914903     1.270241     2.505683
 H    -2.460786     0.387234     2.836511
 C    -0.590064     3.573288     1.685868
 H    -0.050706     4.465137     1.356064
 C    -1.643379     2.291615     3.417720
 H    -1.963989     2.179378     4.458056
 C    -0.987727     3.461210     3.025301
 C    -0.681240     4.555138     4.004506
 H    -1.128640     4.357740     4.989183
 H     0.407768     4.660798     4.140624
 H    -1.054560     5.528856     3.649997
 C    -4.003793    -0.565664    -1.660208
 O    -3.208638    -1.634718    -1.790838
 C    -3.567599    -2.714767    -2.596396
 H    -2.754688    -3.443222    -2.491332
 H    -4.513221    -3.177638    -2.261993
 H    -3.665400    -2.418279    -3.655296
 C    -4.248590     1.617007    -0.668023
 O    -3.710902     2.591736     0.080279
 C    -4.395490     3.790553     0.288190
 H    -3.739437     4.408824     0.914484
 H    -5.351928     3.631797     0.817096
 H    -4.593603     4.320163    -0.660111
 C    -5.508666     1.740217    -1.273091
 H    -6.100217     2.644320    -1.135235
 C    -5.254047    -0.448238    -2.278553
 H    -5.634913    -1.241563    -2.920830
 C    -5.994685     0.709797    -2.069582
 H    -6.971764     0.817254    -2.546895
 C    -3.251704    -1.672959     1.531448
 O    -4.168372    -0.686544     1.727953
 C    -5.520104    -0.959651     1.454718
 H    -6.057622    -0.008939     1.562354
 H    -5.656171    -1.320800     0.421891
 H    -5.955057    -1.690661     2.158438
 C    -1.033950    -2.446094     0.716215
 O    -0.909264    -2.801891    -0.622641
 C     0.199500    -3.554544    -1.041430
 H    -0.130918    -4.170764    -1.892469
 H     0.581962    -4.231543    -0.258215
 H     1.016275    -2.901274    -1.377753
 C    -1.170136    -3.638543     1.707362
 H    -0.805015    -4.559226     1.225863
 C    -3.467426    -2.942737     2.230364
 H    -4.434529    -3.104087     2.711128
 C    -2.504904    -3.873353     2.311558
 H    -2.690937    -4.814030     2.839775
 C     2.518651    -2.582828     1.306336
 H     3.524622    -2.438794     0.907736
 C     0.170964    -1.893670     1.563180
 H    -0.132741    -0.928901     1.988771
 C     2.294137    -3.723605     2.186055
 H     3.132662    -4.406897     2.353396
 C    -0.035646    -3.034524     2.594314
 H    -0.435803    -2.676411     3.558380
 C     1.128067    -3.947854     2.825168
 C     0.907640    -5.092364     3.758181
 H     0.620512    -4.730605     4.761203
 H     0.078172    -5.735385     3.414840
 H     1.804758    -5.719329     3.859665
 C     4.650147    -0.278082    -0.152023
 O     4.549105     0.074233     1.141640
 C     5.592726     0.758592     1.771894
 H     5.200637     1.090699     2.742137
 H     6.471190     0.110642     1.939854
 H     5.903479     1.645506     1.193664
 C     3.565280    -1.202499    -2.091898
 O     2.441268    -1.708821    -2.619991
 C     2.358545    -1.990249    -3.990307
 H     1.299808    -2.197972    -4.191547
 H     2.964845    -2.871687    -4.263281
 H     2.671265    -1.123416    -4.594530
 C     4.794858    -1.256713    -2.761391
 H     4.857905    -1.668167    -3.767942
 C     5.883629    -0.325789    -0.813426
 H     6.797266    -0.021516    -0.303773
 C     5.937304    -0.796796    -2.120300
 H     6.898175    -0.835103    -2.639314
 C     2.665506     2.347567     0.339638
 O     2.888008     2.233388    -0.979982
 C     3.431626     3.301927    -1.701172
 H     3.489259     2.964295    -2.742062
 H     2.787696     4.196838    -1.650183
 H     4.441675     3.561486    -1.338306
 C     1.968637     1.268839     2.372418
 O     1.498370     0.168596     2.988157
 C     1.307039     0.164884     4.371409
 H     0.934985    -0.835660     4.627822
 H     0.560913     0.916637     4.681222
 H     2.251135     0.340816     4.916431
 C     2.285830     2.429209     3.093009
 H     2.131910     2.467424     4.170095
 C     2.974878     3.513689     1.050604
 H     3.373122     4.386907     0.536193
 C     2.782387     3.540224     2.426279
 H     3.024508     4.445181     2.989143
