  98
scf done:    -3149.312244
 C     1.182465    -0.709322    -3.170832
 H     1.786088    -1.521587    -3.605807
 H     0.222369    -0.753744    -3.708252
 C     1.874808     0.621030    -3.451186
 H     2.863903     0.676440    -2.968489
 H     2.032780     0.792773    -4.532554
 H     1.298127     1.483875    -3.074136
Ir     1.004732    -0.896126    -1.051981
 C    -1.060245     2.039109    -0.503525
 C    -1.901461     0.412301    -2.704010
 C    -2.283730    -0.526254    -0.005735
 C     0.017478    -1.159504     2.412053
 C     2.760594    -1.626601     1.915238
 C     1.719095     1.082180     1.712104
 P     1.339852    -0.658549     1.239093
 P    -1.039226     0.293159    -1.078662
 C     2.039491    -2.419589    -1.147516
 O     2.556472    -3.453638    -1.188288
 C    -1.450935     2.392696     0.794702
 H    -1.816526     1.631811     1.487702
 C    -0.592997     3.052269    -1.352157
 H    -0.270767     2.810574    -2.367716
 C    -1.378311     3.712153     1.235740
 H    -1.681814     3.980282     2.249049
 C    -0.515346     4.374259    -0.926988
 H    -0.144803     5.155100    -1.592936
 C    -0.905827     4.697248     0.371582
Cl    -0.779204     6.333581     0.922669
 H    -2.749471     1.109647    -2.608921
 H    -1.188431     0.863366    -3.412553
 C    -2.352613    -0.950809    -3.217534
 H    -1.545615    -1.686830    -3.058218
 H    -3.209047    -1.307681    -2.620683
 C    -2.739992    -0.930014    -4.689045
 H    -1.871362    -0.594933    -5.284692
 H    -3.528571    -0.172960    -4.853784
 C    -3.214814    -2.280091    -5.207209
 H    -2.423215    -3.029486    -5.031380
 H    -4.080493    -2.614098    -4.607776
 C    -3.587816    -2.263752    -6.680621
 H    -3.925435    -3.252735    -7.025610
 H    -2.729627    -1.968931    -7.305689
 H    -4.400520    -1.546560    -6.879843
 H    -2.241897    -1.590909    -0.285892
 H    -1.869358    -0.495136     1.011383
 C    -3.716075    -0.011684    -0.006655
 H    -3.733457     1.081737     0.139368
 H    -4.188861    -0.191095    -0.986806
 C    -4.535074    -0.683235     1.088888
 H    -4.038181    -0.516863     2.061525
 H    -4.514952    -1.778004     0.938581
 C    -5.977702    -0.209800     1.177667
 H    -5.989976     0.882770     1.340024
 H    -6.477930    -0.372246     0.206381
 C    -6.759196    -0.902937     2.282565
 H    -7.791238    -0.527204     2.350987
 H    -6.279165    -0.754210     3.263027
 H    -6.810112    -1.990220     2.111368
 C    -0.554610    -2.425694     2.216336
 H    -0.155865    -3.076740     1.432479
 C    -0.532128    -0.324614     3.391425
 H    -0.101860     0.659691     3.586022
 C    -1.660597    -2.838032     2.949246
 H    -2.114856    -3.815474     2.779326
 C    -1.654858    -0.716190     4.120528
 H    -2.097438    -0.053751     4.866458
 C    -2.221688    -1.965840     3.883554
Cl    -3.656682    -2.429884     4.734585
 H     2.788512    -1.494952     3.009814
 H     2.509216    -2.684184     1.726637
 C     4.102490    -1.286810     1.279826
 H     3.970035    -1.145515     0.192916
 H     4.461683    -0.318999     1.670396
 C     5.159194    -2.355871     1.518596
 H     4.803170    -3.308157     1.086107
 H     5.268408    -2.535889     2.603899
 C     6.515260    -2.007495     0.921635
 H     6.392722    -1.820958    -0.159809
 H     6.867053    -1.052657     1.351655
 C     7.564767    -3.085216     1.139613
 H     8.532519    -2.806464     0.695811
 H     7.254008    -4.040521     0.687053
 H     7.731838    -3.269714     2.213226
 H     0.750874     1.582266     1.868883
 H     2.253745     1.101227     2.677552
 C     2.475419     1.844757     0.629678
 H     3.483193     1.421428     0.489360
 H     1.957146     1.688654    -0.333455
 C     2.570375     3.334796     0.920355
 H     3.156362     3.500680     1.843116
 H     1.559157     3.723261     1.132781
 C     3.176630     4.136506    -0.222010
 H     4.195452     3.765148    -0.431318
 H     2.594367     3.938904    -1.139468
 C     3.213847     5.631772     0.049424
 H     3.641791     6.189305    -0.797625
 H     3.822869     5.861242     0.938799
 H     2.202556     6.027673     0.236439
