 102
scf done:    -3601.450861
 C     0.374551    -3.374846    -2.234656
 H     0.111033    -3.382306    -3.306654
 H     1.465141    -3.199279    -2.228227
 C     0.100267    -4.756423    -1.644961
 H    -0.959853    -5.038103    -1.749288
 H     0.694123    -5.549624    -2.136077
 H     0.326392    -4.805664    -0.566194
Ir    -0.739880    -1.797427    -1.279403
 C     1.448464     0.211102     0.813982
 C     2.212045    -2.527630     0.469239
 C     2.529294    -0.787731    -1.875439
 C    -1.294339     1.569844    -0.376855
 C    -3.651616     0.151058    -1.142211
 C    -2.503386    -0.259399     1.480537
 P    -2.005221    -0.115488    -0.297630
 P     1.372210    -1.132298    -0.440212
 C    -2.223721    -2.534353    -2.115986
 O    -3.119515    -3.025212    -2.648515
 C     1.882681     1.521542     0.584991
 H     2.261767     1.824010    -0.386715
 C     0.926265    -0.096891     2.079987
 H     0.553916    -1.102742     2.292379
 C     1.812022     2.487899     1.584478
 H     2.137046     3.509275     1.381418
 C     0.846500     0.858747     3.087553
 H     0.429813     0.608135     4.064481
 C     1.290117     2.155111     2.830003
Cl     1.145813     3.371754     4.053015
 H     1.628343    -2.688154     1.387270
 H     2.049290    -3.412827    -0.160419
 C     3.668613    -2.329788     0.756432
 C     4.633300    -2.933218    -0.060305
 H     4.317193    -3.593123    -0.873032
 C     4.100558    -1.508299     1.805355
 H     3.359821    -1.031079     2.450430
 C     5.989121    -2.699309     0.159300
 H     6.733100    -3.170476    -0.487277
 C     5.456226    -1.258623     2.036753
 C     5.883957    -0.372673     3.170346
 H     5.137032     0.409380     3.370255
 H     6.008017    -0.953365     4.099595
 H     6.846255     0.115448     2.958888
 C     6.398411    -1.862600     1.194601
 H     7.463737    -1.675576     1.355043
 H     3.177890    -1.675306    -1.919161
 H     1.871581    -0.829134    -2.753893
 C     3.361990     0.456235    -1.899869
 C     2.990307     1.531485    -2.715602
 H     2.120028     1.434733    -3.369740
 C     4.494141     0.585195    -1.090391
 H     4.798223    -0.251662    -0.460169
 C     3.711847     2.722027    -2.678529
 H     3.411090     3.562367    -3.309149
 C     5.225610     1.775040    -1.036256
 C     6.394968     1.897914    -0.103468
 H     7.063092     2.721055    -0.393696
 H     6.050010     2.094765     0.925447
 H     6.979055     0.966536    -0.072666
 C     4.814549     2.848111    -1.835658
 H     5.370416     3.789064    -1.804456
 C    -1.454356     2.540317     0.616354
 H    -2.000386     2.316503     1.533256
 C    -0.594269     1.906147    -1.542663
 H    -0.456684     1.139132    -2.312536
 C    -0.914406     3.814260     0.462834
 H    -1.014295     4.560934     1.252165
 C    -0.067871     3.180943    -1.720079
 H     0.482386     3.443979    -2.624177
 C    -0.224289     4.125111    -0.706028
Cl     0.477885     5.698955    -0.889767
 H    -3.406609     0.249587    -2.210690
 H    -4.196878    -0.798056    -1.020561
 C    -4.443949     1.315478    -0.639823
 C    -5.447573     1.142429     0.322729
 H    -5.701805     0.133672     0.657468
 C    -4.155578     2.612920    -1.076033
 H    -3.381078     2.758452    -1.834251
 C    -6.119268     2.245204     0.842804
 H    -6.904387     2.100839     1.589286
 C    -4.810501     3.733475    -0.555169
 C    -4.431097     5.108797    -1.022082
 H    -3.373956     5.322396    -0.793721
 H    -4.549078     5.207432    -2.112684
 H    -5.045636     5.883897    -0.543346
 C    -5.797079     3.532765     0.415312
 H    -6.323066     4.394418     0.835364
 H    -1.580726    -0.090014     2.056642
 H    -3.193588     0.562354     1.724422
 C    -3.128955    -1.578453     1.844176
 C    -4.356302    -1.612149     2.518611
 H    -4.856786    -0.674852     2.775437
 C    -2.498001    -2.789908     1.544282
 H    -1.555703    -2.769817     0.978443
 C    -4.932216    -2.829702     2.871252
 H    -5.890062    -2.845582     3.397172
 C    -3.066360    -4.022238     1.884743
 C    -2.364334    -5.297466     1.518566
 H    -1.374603    -5.359671     1.998489
 H    -2.943205    -6.181135     1.821142
 H    -2.193277    -5.352887     0.432458
 C    -4.294399    -4.027350     2.553619
 H    -4.756562    -4.980247     2.825766
