  94
scf done:    -3745.102020
 C    -1.840062     1.128010    -2.926020
 H    -1.416183     1.162674    -3.943503
 H    -2.471623     0.223627    -2.917273
 C    -2.710910     2.357061    -2.691936
 H    -2.133465     3.291436    -2.780527
 H    -3.541191     2.416497    -3.419062
 H    -3.165390     2.356878    -1.688673
Ir    -0.235962     1.034094    -1.478421
 C    -3.244104    -0.250194    -0.346415
 O    -1.655038    -2.046052    -1.394497
 O    -0.967128    -1.156213     0.938115
 C     2.535285    -0.243943     0.340640
 O     2.403266     2.398904    -0.206120
 O     0.992832     1.407604     1.686871
 P     1.373832     1.126308     0.092232
 P    -1.491851    -0.646233    -0.537795
 C     0.691901     2.220402    -2.610119
 O     1.269944     2.879328    -3.347865
 C    -3.552269     0.827755     0.490042
 H    -2.756951     1.369567     1.007001
 C    -4.264099    -0.926087    -1.021357
 H    -4.017044    -1.765399    -1.673564
 C    -4.873853     1.212191     0.680027
 H    -5.121064     2.042823     1.342394
 C    -5.588910    -0.537317    -0.847733
 H    -6.397016    -1.052987    -1.368706
 C    -5.885050     0.525434     0.007211
Cl    -7.531991     1.001907     0.231698
 C    -0.615782    -2.922530    -1.648759
 C    -0.358008    -3.929538    -0.721572
 H    -0.961294    -3.981433     0.185922
 C     0.097401    -2.828549    -2.853388
 C    -0.200857    -1.754591    -3.848022
 H     0.366737    -1.906309    -4.775479
 H    -1.273498    -1.718373    -4.089226
 H     0.052718    -0.761997    -3.431084
 C     0.649905    -4.858102    -0.967243
 H     0.853807    -5.642035    -0.234788
 C     1.098898    -3.781267    -3.076335
 H     1.664491    -3.730511    -4.010690
 C     1.382051    -4.782943    -2.149613
 H     2.170786    -5.510089    -2.356205
 C    -1.469949    -2.080963     1.827745
 C    -2.831632    -2.324466     1.998223
 H    -3.565580    -1.787439     1.403305
 C    -0.509248    -2.758270     2.599965
 C     0.946925    -2.494228     2.398263
 H     1.255340    -2.737317     1.369523
 H     1.184669    -1.430725     2.539697
 H     1.556719    -3.085572     3.093846
 C    -3.254234    -3.259308     2.942350
 H    -4.323527    -3.444010     3.066981
 C    -0.965698    -3.684670     3.540990
 H    -0.226820    -4.217443     4.145548
 C    -2.323705    -3.942920     3.717624
 H    -2.650900    -4.674906     4.459081
 C     2.566063    -1.229410    -0.650776
 H     1.879994    -1.154814    -1.499681
 C     3.398521    -0.342284     1.439450
 H     3.370941     0.411838     2.227283
 C     3.443851    -2.305036    -0.556339
 H     3.453895    -3.083873    -1.318715
 C     4.284054    -1.408719     1.540626
 H     4.961659    -1.494727     2.391317
 C     4.297797    -2.384348     0.541826
Cl     5.384968    -3.724187     0.678407
 C     3.596311     2.607075     0.442963
 C     3.614841     3.134200     1.733401
 H     2.670333     3.353912     2.232224
 C     4.779738     2.306736    -0.248225
 C     4.722072     1.756675    -1.639565
 H     5.723386     1.716876    -2.088918
 H     4.306542     0.736209    -1.643015
 H     4.069140     2.367152    -2.281031
 C     4.834691     3.348988     2.371293
 H     4.851590     3.757670     3.384235
 C     5.988481     2.537223     0.414858
 H     6.923070     2.309104    -0.104698
 C     6.024147     3.045748     1.712255
 H     6.984355     3.212792     2.205418
 C    -0.214852     1.808301     2.203032
 C    -0.779119     0.977908     3.173156
 H    -0.271067     0.044736     3.416037
 C    -0.825644     3.024041     1.846787
 C    -0.269556     3.931881     0.793594
 H     0.820935     4.038738     0.864927
 H    -0.478023     3.521815    -0.210531
 H    -0.727002     4.928052     0.860035
 C    -1.963764     1.333040     3.807828
 H    -2.396608     0.666572     4.556789
 C    -2.014188     3.359973     2.511310
 H    -2.498501     4.305253     2.251750
 C    -2.585468     2.536174     3.477589
 H    -3.512424     2.834789     3.972293
