  68
scf done:    -1837.545725
 C    -3.360107    -0.069746     0.426922
 H    -3.796391    -0.503575     1.344374
 H    -3.442308     1.022208     0.557261
 C    -4.209470    -0.476248    -0.774637
 H    -4.268506    -1.570827    -0.885324
 H    -5.246708    -0.099080    -0.697872
 H    -3.797346    -0.088475    -1.721778
Ir    -1.329417    -0.669436     0.151091
 C     0.443586     2.399610    -0.262490
 C    -1.715337     2.606930     1.683760
 C     0.645938     1.156186     2.357814
 C     2.227768    -1.311910     0.292609
 C     0.820300    -3.053603    -1.367444
 C     1.062869    -0.315397    -2.323914
 P     0.725140    -1.293085    -0.789731
 P    -0.518460     1.400931     0.948842
 C    -1.909224    -2.416057     0.313903
 O    -2.212056    -3.499076     0.584611
 C     1.839554     2.486740    -0.154774
 H     2.351872     2.035859     0.695799
 C    -0.193250     2.944845    -1.400029
 C    -1.677478     2.858813    -1.609451
 H    -2.201888     3.685022    -1.102972
 H    -2.091056     1.914743    -1.218878
 H    -1.924789     2.920535    -2.678047
 C     2.605132     3.114254    -1.134501
 H     3.690672     3.168477    -1.023672
 C     0.595154     3.568923    -2.373781
 H     0.103862     3.983008    -3.258679
 C     1.978687     3.660543    -2.251382
 H     2.565586     4.150709    -3.031639
 H    -2.472206     2.828982     0.919838
 C    -2.389628     2.071595     2.939437
 H    -1.682958     1.959569     3.774392
 H    -2.847097     1.089663     2.754326
 H    -1.174846     3.546978     1.878784
 H    -3.183677     2.758138     3.270470
 H     1.502551     0.594254     1.962242
 C     1.096537     2.392706     3.122772
 H     0.268093     2.870806     3.664205
 H     1.539966     3.153641     2.464007
 H     0.129034     0.443236     3.018933
 H     1.857545     2.116052     3.868796
 C     1.921601    -1.799638     1.574432
 H     0.875503    -2.037996     1.796645
 C     3.564206    -0.967663    -0.006328
 C     4.032802    -0.500993    -1.355354
 H     3.596671     0.468909    -1.633818
 H     3.767844    -1.217388    -2.146384
 H     5.125673    -0.390185    -1.361689
 C     2.891234    -1.940744     2.560675
 H     2.618116    -2.326456     3.545479
 C     4.519980    -1.084364     1.014302
 H     5.553343    -0.803138     0.792810
 C     4.201491    -1.562669     2.281305
 H     4.978945    -1.644505     3.044709
 H     0.668608    -3.654168    -0.455786
 C    -0.176233    -3.454519    -2.442133
 H     0.075136    -3.010284    -3.416397
 H    -1.198817    -3.142609    -2.181585
 H     1.856471    -3.240741    -1.696230
 H    -0.182033    -4.547487    -2.571323
 H     1.812107    -0.830153    -2.943124
 C    -0.207676    -0.043328    -3.120432
 H    -1.005731     0.333032    -2.463293
 H    -0.597738    -0.947703    -3.606123
 H     1.501852     0.638991    -2.002287
 H    -0.014614     0.707859    -3.901428
