  94
scf done:    -3024.398927
 C    -1.147624     0.810224    -3.263692
 H    -0.762105     0.562362    -4.265549
 H    -2.178072     0.421732    -3.238653
 C    -1.161353     2.323992    -3.093443
 H    -0.144462     2.751370    -3.100884
 H    -1.725006     2.825289    -3.902117
 H    -1.642000     2.628629    -2.148449
Ir     0.084006    -0.013968    -1.741452
 C    -1.406009     1.367501     1.275567
 C    -3.309639     0.829939    -0.774685
 C    -2.121502    -1.370490     0.507839
 C     1.525363    -1.613476     1.154466
 C     3.465118    -0.675439    -0.719912
 C     2.084524     1.248953     0.751890
 P     1.761743    -0.326168    -0.128508
 P    -1.668815     0.263672    -0.175079
 C     0.858029    -1.068462    -3.037613
 O     1.194769    -1.863949    -3.807011
 C    -1.633276     1.013780     2.609933
 H    -2.017759     0.022772     2.855438
 C    -0.899457     2.646017     1.000711
 H    -0.690448     2.931879    -0.033134
 C    -1.343184     1.900279     3.646191
 H    -1.495202     1.626284     4.691767
 C    -0.632660     3.552538     2.020412
 H    -0.226450     4.543452     1.813193
 C    -0.844428     3.157021     3.334227
 F    -0.538171     4.000785     4.323649
 C    -3.874710     2.072126    -0.457926
 H    -3.356224     2.754959     0.217992
 C    -4.017946    -0.019908    -1.630140
 H    -3.602732    -0.999271    -1.883010
 C    -5.101538     2.452014    -0.983411
 H    -5.548315     3.417160    -0.737820
 C    -5.250561     0.347700    -2.162943
 H    -5.770352    -0.344196    -2.825783
 C    -5.799653     1.596047    -1.844608
 O    -6.980599     2.047536    -2.308643
 C    -7.714063     1.241307    -3.187361
 H    -8.006203     0.283847    -2.720725
 H    -8.622173     1.801149    -3.444542
 H    -7.152674     1.027028    -4.113805
 C    -1.406484    -2.511529     0.118411
 H    -0.589884    -2.388042    -0.598977
 C    -3.208293    -1.529086     1.373685
 H    -3.829770    -0.668088     1.633854
 C    -1.731280    -3.760443     0.620190
 H    -1.175192    -4.651775     0.325568
 C    -3.533624    -2.776707     1.902322
 H    -4.381776    -2.863580     2.581773
 C    -2.781992    -3.902161     1.536271
 O    -3.007791    -5.145615     1.995705
 C    -4.025244    -5.348741     2.935653
 H    -5.018854    -5.088981     2.529709
 H    -4.013460    -6.416963     3.185975
 H    -3.853607    -4.764685     3.856979
 C     1.948086    -2.925541     0.895115
 H     2.543189    -3.138692     0.003703
 C     0.740328    -1.380792     2.290565
 H     0.368139    -0.377879     2.497457
 C     1.612217    -3.969933     1.750983
 H     1.934458    -4.994255     1.555216
 C     0.398718    -2.414884     3.156561
 H    -0.219704    -2.239056     4.038511
 C     0.836652    -3.700934     2.872681
 F     0.499946    -4.698944     3.687176
 C     4.473551    -1.075447     0.174514
 H     4.229985    -1.259672     1.223923
 C     3.822115    -0.419444    -2.042405
 H     3.060258    -0.076363    -2.745159
 C     5.778760    -1.244818    -0.252245
 H     6.565649    -1.562992     0.434204
 C     5.135255    -0.579034    -2.486537
 H     5.370041    -0.373708    -3.530948
 C     6.122561    -1.001493    -1.591984
 O     7.413643    -1.195588    -1.917687
 C     7.818186    -0.967063    -3.239078
 H     7.655976     0.082329    -3.541979
 H     8.892431    -1.186695    -3.281630
 H     7.289911    -1.626899    -3.949518
 C     2.109576     2.398970    -0.056597
 H     1.896955     2.300655    -1.126655
 C     2.370511     1.389921     2.108689
 H     2.404419     0.514165     2.759227
 C     2.376150     3.645769     0.480887
 H     2.385494     4.543640    -0.140074
 C     2.608855     2.645515     2.669692
 H     2.793410     2.721495     3.741274
 C     2.595497     3.784599     1.859388
 O     2.756610     5.042008     2.313862
 C     2.845991     5.249302     3.698518
 H     3.743144     4.770881     4.128818
 H     2.919195     6.333739     3.848850
 H     1.949212     4.872119     4.219658
