  78
scf done:    -4404.484148
 C    -1.095565     1.397792    -3.077536
 H    -1.547062     0.804950    -3.891175
 H    -1.946451     1.882779    -2.570259
 C    -0.182291     2.465229    -3.668234
 H     0.621343     2.026584    -4.281365
 H    -0.738538     3.169285    -4.314438
 H     0.307701     3.071482    -2.887353
Ir     0.019241     0.205119    -1.712573
 C    -1.585411     1.703161     1.124378
 C    -3.402591     0.569666    -0.800559
 C    -1.958983    -1.189798     0.785510
 C     1.540218    -1.898290     0.885065
 C     3.370611    -0.547895    -0.856304
 C     1.959656     0.994076     0.985952
 P     1.667372    -0.404946    -0.167838
 P    -1.702236     0.375730    -0.129473
 C     0.821407    -0.613072    -3.171058
 O     1.181750    -1.264895    -4.052453
 C    -1.086321     1.492953     2.415048
 H    -0.853059     0.482252     2.752259
 C    -1.843603     3.018755     0.710116
 H    -2.206590     3.209815    -0.303564
 C    -0.872772     2.558851     3.284349
 H    -0.474567     2.407294     4.288789
 C    -1.641772     4.092210     1.570779
 H    -1.846070     5.119001     1.262139
 C    -1.158464     3.847208     2.851911
 F    -0.957589     4.869437     3.675246
 C    -3.704947    -0.104579    -1.989132
 H    -2.906882    -0.629677    -2.521208
 C    -4.423286     1.241683    -0.121523
 H    -4.212763     1.764474     0.814097
 C    -4.997710    -0.103256    -2.499153
 H    -5.234088    -0.624700    -3.427845
 C    -5.721229     1.256479    -0.625968
 H    -6.519399     1.784491    -0.101890
 C    -6.000493     0.583081    -1.813766
Cl    -7.610811     0.598905    -2.445689
 C    -2.686203    -1.270449     1.978229
 H    -3.085584    -0.367222     2.445296
 C    -1.516179    -2.368282     0.175343
 H    -0.958760    -2.291961    -0.764086
 C    -2.913945    -2.501570     2.585365
 H    -3.462158    -2.570474     3.526254
 C    -1.763218    -3.606101     0.756850
 H    -1.412756    -4.525581     0.286777
 C    -2.441072    -3.662407     1.972990
Cl    -2.684957    -5.192241     2.741448
 C     1.822354    -3.143365     0.303527
 H     2.204875    -3.192128    -0.719696
 C     1.017490    -1.871696     2.183531
 H     0.764235    -0.918886     2.649965
 C     1.623279    -4.325542     1.008394
 H     1.847382    -5.298661     0.567700
 C     0.806263    -3.046973     2.898653
 H     0.390897    -3.036272     3.907537
 C     1.117413    -4.261976     2.302446
 F     0.919911    -5.388376     2.978190
 C     3.692298     0.199765    -1.994026
 H     2.911992     0.783159    -2.490288
 C     4.383848    -1.273566    -0.218130
 H     4.163063    -1.854028     0.680332
 C     4.988472     0.213893    -2.499117
 H     5.235464     0.794662    -3.389016
 C     5.682630    -1.274589    -0.717033
 H     6.470488    -1.847367    -0.225289
 C     5.977842    -0.530139    -1.858710
Cl     7.590679    -0.529443    -2.483988
 C     2.647524     0.882442     2.199251
 H     3.019419    -0.087933     2.535720
 C     1.549607     2.261693     0.555878
 H     1.028722     2.352711    -0.404182
 C     2.866994     2.002005     2.996476
 H     3.385448     1.916378     3.952803
 C     1.783602     3.391758     1.329880
 H     1.454626     4.376914     0.997464
 C     2.422166     3.249943     2.560324
Cl     2.649787     4.637941     3.566526
