  78
scf done:    -3135.855005
 C     1.808849    -1.042681    -2.620008
 H     1.494671    -1.217720    -3.661917
 H     2.441842    -0.139883    -2.654574
 C     2.645448    -2.216484    -2.121547
 H     2.073729    -3.158831    -2.120100
 H     3.540117    -2.380221    -2.750694
 H     3.005525    -2.055409    -1.091817
Ir     0.128398    -0.871098    -1.284718
 C     2.811314     0.739245     0.261058
 O     1.634015     2.073564    -1.678343
 O     0.371765     1.924616     0.548749
 C    -2.886780    -0.083599     0.515930
 O    -1.986023    -2.512358     0.722739
 O    -0.580679    -0.683094     1.867887
 P    -1.332844    -1.031898     0.445451
 P     1.198971     1.002710    -0.524306
 C    -0.871369    -1.921108    -2.472154
 O    -1.533706    -2.424741    -3.268416
 C     2.832622    -0.128847     1.361763
 H     1.894665    -0.569039     1.716203
 C     4.001915     1.298187    -0.206467
 H     3.978026     1.961224    -1.073346
 C     4.030454    -0.418184     2.003810
 H     4.061173    -1.088860     2.863941
 C     5.207950     1.010291     0.428715
 H     6.146465     1.439506     0.074259
 C     5.212421     0.156941     1.531055
Cl     6.708236    -0.203869     2.323156
 C     0.891079     2.206108    -2.903808
 H     0.540862     1.197158    -3.185936
 C     1.860505     2.727198    -3.939775
 H     2.709533     2.038028    -4.052494
 H     2.247844     3.715846    -3.647481
 H     1.362176     2.824359    -4.915364
 C    -0.312580     3.101239    -2.693877
 H    -1.004604     2.658208    -1.963156
 H    -0.003875     4.096579    -2.337727
 H    -0.861756     3.226169    -3.638837
 C     0.841649     3.205248     1.003791
 H     1.564498     3.590988     0.264402
 C     1.517210     3.066892     2.354126
 H     2.397857     2.414013     2.299959
 H     0.816672     2.643897     3.089297
 H     1.843037     4.053731     2.715611
 C    -0.361052     4.125757     1.049303
 H    -0.821956     4.218497     0.056085
 H    -1.115845     3.732481     1.747671
 H    -0.064951     5.129465     1.388516
 C    -4.129059    -0.667341     0.779573
 H    -4.186634    -1.741512     0.962979
 C    -2.814452     1.291047     0.257176
 H    -1.840224     1.743682     0.058709
 C    -5.283559     0.111900     0.804498
 H    -6.257791    -0.334883     1.009707
 C    -3.958851     2.078911     0.285074
 H    -3.907581     3.151858     0.092308
 C    -5.189986     1.481117     0.560727
Cl    -6.621405     2.454377     0.592634
 C    -1.297695    -3.721452     0.377887
 H    -0.477587    -3.458642    -0.316872
 C    -2.286874    -4.619939    -0.331501
 H    -2.672060    -4.130075    -1.237018
 H    -3.137051    -4.853456     0.328455
 H    -1.807407    -5.564901    -0.626946
 C    -0.702905    -4.338100     1.626936
 H     0.038790    -3.661238     2.073358
 H    -1.487726    -4.540635     2.372368
 H    -0.198940    -5.285806     1.385906
 C    -1.228455    -0.759695     3.145081
 H    -2.100674    -1.431602     3.056392
 C    -1.685256     0.619193     3.581324
 H    -2.425758     1.037350     2.887744
 H    -0.824584     1.302780     3.621022
 H    -2.139347     0.571063     4.582406
 C    -0.233268    -1.363011     4.115799
 H     0.082032    -2.363037     3.788892
 H     0.660091    -0.723188     4.189104
 H    -0.676527    -1.451115     5.118775
