  82
scf done:    -5425.833004
 C    -0.788865    -3.247786    -1.645494
 H    -1.007990    -4.161066    -1.068118
 H    -1.753095    -2.874613    -2.020722
 C     0.129550    -3.581184    -2.816915
 H     1.087986    -4.013263    -2.487415
 H    -0.339603    -4.309653    -3.503036
 H     0.369943    -2.688954    -3.418918
Ir     0.210202    -1.766974    -0.482642
 C    -1.460606     1.425912    -0.898663
 O    -2.772990    -0.802798    -1.651949
 O    -2.367260    -0.278805     0.837018
 C     1.666964     0.643534     1.892674
 O     3.250349    -0.725853     0.343456
 O     1.778945     1.064575    -0.773942
 P     1.669629    -0.209530     0.297149
 P    -1.553777    -0.362336    -0.612558
 C     1.047505    -3.196621     0.414922
 O     1.408181    -4.057773     1.081973
 C    -2.086111     2.377812    -0.088061
 H    -2.662028     2.053374     0.779553
 C    -0.738130     1.844244    -2.022276
 H    -0.230678     1.105916    -2.648455
 C    -1.977475     3.733598    -0.385030
 H    -2.454451     4.485228     0.245760
 C    -0.632916     3.193694    -2.334892
 H    -0.057601     3.528351    -3.198916
 C    -1.247247     4.132305    -1.504424
Cl    -1.071714     5.815505    -1.850397
 C    -3.931060    -0.073207    -1.772075
 C    -4.975056    -0.254614    -0.865868
 H    -4.870133    -0.978092    -0.055919
 C    -4.056273     0.836761    -2.820864
 H    -3.229030     0.960724    -3.521117
 C    -6.146637     0.483862    -1.005122
 H    -6.972632     0.351374    -0.304766
 C    -5.225355     1.576796    -2.962536
 H    -5.335333     2.293879    -3.777314
 C    -6.264546     1.399965    -2.049507
Cl    -7.718878     2.325182    -2.217616
 C    -2.614732    -1.351343     1.653232
 C    -2.856587    -2.633336     1.157416
 H    -2.836282    -2.823845     0.084184
 C    -2.651846    -1.109345     3.025514
 H    -2.472137    -0.098622     3.395423
 C    -3.116010    -3.675830     2.042309
 H    -3.297433    -4.683603     1.666082
 C    -2.917106    -2.149323     3.910186
 H    -2.944630    -1.970580     4.986003
 C    -3.142661    -3.432627     3.414235
Cl    -3.463971    -4.732422     4.512139
 C     2.836938     1.113969     2.502143
 H     3.807004     0.899493     2.051224
 C     0.426188     0.911362     2.477958
 H    -0.486170     0.534627     2.011726
 C     2.765236     1.857791     3.673628
 H     3.669283     2.234144     4.154539
 C     0.344222     1.659795     3.647521
 H    -0.619250     1.877751     4.111049
 C     1.516973     2.132188     4.235633
Cl     1.423853     3.067074     5.685694
 C     3.716594    -1.635442    -0.568030
 C     3.394670    -1.551195    -1.924788
 H     2.769257    -0.733614    -2.287815
 C     4.523553    -2.669823    -0.097775
 H     4.748177    -2.722128     0.968725
 C     3.870146    -2.516363    -2.808221
 H     3.614927    -2.469813    -3.867746
 C     5.006647    -3.629096    -0.981022
 H     5.631887    -4.448718    -0.624002
 C     4.672377    -3.551719    -2.333432
Cl     5.255465    -4.757229    -3.431258
 C     2.484402     2.212807    -0.521063
 C     3.837209     2.290353    -0.846900
 H     4.336816     1.423908    -1.283934
 C     1.826003     3.305899     0.041523
 H     0.769598     3.218369     0.298758
 C     4.536295     3.471334    -0.610399
 H     5.595548     3.550452    -0.859686
 C     2.519321     4.488219     0.273466
 H     2.013466     5.353013     0.704990
 C     3.873967     4.563833    -0.051344
Cl     4.743491     6.032662     0.241789
