 100
scf done:    -2904.586380
 C    -1.009118     1.628512    -2.997904
 H    -1.514326     1.106067    -3.828649
 H    -1.815063     2.151264    -2.456155
 C    -0.030183     2.652514    -3.560631
 H     0.731158     2.183423    -4.204837
 H    -0.542034     3.423496    -4.167003
 H     0.514356     3.185920    -2.762975
Ir     0.028537     0.300629    -1.697406
 C    -1.451782     1.722727     1.232873
 C    -3.359743     0.874805    -0.744322
 C    -2.057551    -1.100551     0.723130
 C     1.397636    -2.017603     0.786598
 C     3.317274    -0.754530    -0.916928
 C     2.052041     0.817340     1.020141
 P     1.645793    -0.493372    -0.196114
 P    -1.686646     0.490170    -0.097553
 C     0.772826    -0.490648    -3.194761
 O     1.081901    -1.121166    -4.113114
 C    -0.974367     1.390404     2.504617
 H    -0.846778     0.342635     2.780054
 C    -1.588574     3.079429     0.908221
 H    -1.942687     3.366945    -0.085819
 C    -0.650354     2.383510     3.423759
 H    -0.268311     2.096523     4.407367
 C    -1.271078     4.066337     1.835227
 H    -1.388231     5.118138     1.559482
 C    -0.786505     3.738979     3.107440
 C    -0.361888     4.802376     4.075367
 H    -0.863487     5.759637     3.873708
 H    -0.577022     4.512357     5.114594
 H     0.725769     4.968301     3.996238
 C    -4.323905     1.589970    -0.020630
 H    -4.066536     2.036915     0.942441
 C    -3.729401     0.306773    -1.965142
 H    -2.983815    -0.253963    -2.535624
 C    -5.611053     1.744512    -0.513919
 H    -6.367508     2.305618     0.038021
 C    -5.019734     0.448306    -2.468777
 H    -5.268489    -0.005320    -3.428271
 C    -5.971078     1.175552    -1.743229
 O    -7.241081     1.378029    -2.144562
 C    -7.657233     0.835855    -3.366379
 H    -7.581533    -0.265888    -3.374552
 H    -8.709545     1.119644    -3.494680
 H    -7.073840     1.236735    -4.213995
 C    -1.689515    -2.282167     0.063497
 H    -1.101412    -2.202749    -0.856323
 C    -2.819830    -1.194415     1.888558
 H    -3.159555    -0.289082     2.397522
 C    -2.051871    -3.518963     0.568692
 H    -1.763137    -4.442298     0.064665
 C    -3.167767    -2.434482     2.422734
 H    -3.750563    -2.473305     3.343205
 C    -2.777839    -3.605679     1.763050
 O    -3.053316    -4.852171     2.205204
 C    -3.787962    -5.001823     3.387465
 H    -4.790935    -4.547441     3.306979
 H    -3.900105    -6.080607     3.554801
 H    -3.266329    -4.558360     4.254291
 C     1.567231    -3.256414     0.153717
 H     1.948015    -3.294220    -0.870792
 C     0.888151    -2.005966     2.089178
 H     0.733897    -1.056067     2.602802
 C     1.252967    -4.440216     0.812251
 H     1.397458    -5.394327     0.297448
 C     0.567396    -3.193593     2.739390
 H     0.161420    -3.154259     3.754076
 C     0.737910    -4.432877     2.114280
 C     0.317543    -5.703236     2.790821
 H     0.474686    -5.653546     3.878543
 H    -0.757365    -5.881258     2.618693
 H     0.867790    -6.572257     2.402341
 C     4.278796    -1.586693    -0.321865
 H     4.018068    -2.183116     0.555440
 C     3.697424     0.002557    -2.025947
 H     2.967193     0.671066    -2.489988
 C     5.562004    -1.675174    -0.837441
 H     6.311350    -2.328963    -0.387072
 C     4.986525    -0.070135    -2.551043
 H     5.239439     0.534640    -3.421971
 C     5.928434    -0.918686    -1.960128
 O     7.194576    -1.071172    -2.393885
 C     7.615026    -0.345161    -3.514721
 H     7.557693     0.744447    -3.344010
 H     8.661933    -0.621083    -3.694148
 H     7.021350    -0.594336    -4.411888
 C     1.721585     2.138491     0.681838
 H     1.171664     2.324065    -0.247487
 C     2.773366     0.595083     2.194102
 H     3.080674    -0.417695     2.465344
 C     2.074723     3.196591     1.501490
 H     1.811904     4.223678     1.244606
 C     3.116854     1.648465     3.041347
 H     3.668221     1.436334     3.957619
 C     2.760489     2.957562     2.698798
 O     3.030786     4.041684     3.458775
 C     3.728407     3.866421     4.659844
 H     4.729557     3.432204     4.492476
 H     3.844171     4.862499     5.105672
 H     3.175710     3.221206     5.365818
