  82
scf done:    -4705.283042
 C    -1.828803    -0.199033    -3.203042
 H    -1.506817    -0.361762    -4.243195
 H    -2.471247    -1.053217    -2.942382
 C    -2.611661     1.106923    -3.115936
 H    -1.987051     1.986041    -3.342341
 H    -3.460531     1.124024    -3.823912
 H    -3.031702     1.275939    -2.110529
Ir    -0.175163    -0.040318    -1.864094
 C    -2.121725     0.359091     1.193171
 O    -2.867215    -1.475862    -0.635173
 O    -0.783266    -1.855583     0.856320
 C     3.238506     0.080371    -0.752724
 O     1.779917     2.264481    -0.595317
 O     1.302838     0.398272     1.108011
 P     1.530355     0.618382    -0.536308
 P    -1.496159    -0.722106    -0.120945
 C     0.936194    -0.278366    -3.355260
 O     1.612238    -0.572112    -4.235598
 C    -1.472496     0.469794     2.427448
 H    -0.621141    -0.173890     2.646035
 C    -3.215890     1.188020     0.911628
 H    -3.732883     1.110458    -0.047562
 C    -1.899929     1.403595     3.366299
 H    -1.404894     1.508663     4.333273
 C    -3.657415     2.116889     1.846798
 H    -4.514188     2.764150     1.651751
 C    -2.986758     2.215971     3.061910
 F    -3.397482     3.108352     3.954496
 C    -3.946880    -1.853601     0.119653
 C    -3.824394    -2.407670     1.393996
 H    -2.837380    -2.553117     1.833304
 C    -5.204412    -1.675927    -0.456565
 H    -5.268631    -1.243513    -1.456952
 C    -4.969844    -2.773882     2.095532
 H    -4.890258    -3.206021     3.094159
 C    -6.348014    -2.047343     0.241486
 H    -7.337267    -1.913624    -0.198828
 C    -6.225771    -2.591602     1.519976
Cl    -7.647441    -3.047491     2.397837
 C     0.199611    -2.714219     0.447580
 C     0.155308    -3.359680    -0.789039
 H    -0.679285    -3.182134    -1.469021
 C     1.251129    -2.949763     1.330880
 H     1.258029    -2.435727     2.292952
 C     1.185797    -4.223859    -1.150841
 H     1.171774    -4.723738    -2.120371
 C     2.277786    -3.818824     0.974945
 H     3.112222    -4.004115     1.653032
 C     2.246569    -4.440544    -0.272531
Cl     3.555157    -5.475408    -0.746091
 C     3.433612    -1.259053    -1.108344
 H     2.567683    -1.893764    -1.313681
 C     4.342872     0.905739    -0.506286
 H     4.188218     1.951975    -0.236438
 C     4.717012    -1.788375    -1.193192
 H     4.886003    -2.835428    -1.450978
 C     5.630209     0.390082    -0.601418
 H     6.510634     1.007486    -0.415014
 C     5.797280    -0.951454    -0.935395
 F     7.028300    -1.443866    -1.012936
 C     0.735226     3.062880    -0.992383
 C     0.860660     3.787543    -2.176017
 H     1.781558     3.700548    -2.754930
 C    -0.434727     3.143597    -0.235955
 H    -0.530541     2.569692     0.687093
 C    -0.188240     4.590396    -2.612390
 H    -0.107719     5.154918    -3.542473
 C    -1.486921     3.943212    -0.671835
 H    -2.409122     4.004113    -0.093275
 C    -1.361149     4.658254    -1.860603
Cl    -2.683120     5.628304    -2.418538
 C     2.195595     0.816710     2.059601
 C     2.042650     2.072724     2.646519
 H     1.231949     2.724447     2.318116
 C     3.232606    -0.026998     2.460506
 H     3.348074    -0.997881     1.976603
 C     2.923944     2.485215     3.641614
 H     2.815401     3.464772     4.109648
 C     4.116090     0.382669     3.454001
 H     4.933090    -0.265702     3.773942
 C     3.957562     1.638056     4.040379
Cl     5.056582     2.150925     5.276265
