  56
scf done:    -1680.432362
 C     2.731743    -1.893616    -0.052943
 H     3.497864    -1.879180     0.744876
 H     2.094780    -2.761718     0.178536
 C     3.406290    -2.151017    -1.397260
 H     4.151323    -1.377840    -1.644506
 H     3.931926    -3.123964    -1.418934
 H     2.679702    -2.161074    -2.226859
Ir     1.614521    -0.070800     0.071007
 C    -1.696074    -1.551553     0.464076
 C     0.319708    -2.836224     2.004826
 C    -0.550939    -0.279327     2.801403
 C    -1.376485     1.935932    -0.134273
 C     0.720505     3.002463     1.555816
 C     0.979558     3.127107    -1.233834
 P     0.450536     1.949135     0.075903
 P    -0.090938    -1.197560     1.286457
 C     3.150665     0.808046    -0.464303
 O     4.122627     1.386629    -0.697079
 C    -2.905778    -1.188396     1.067263
 H    -2.906787    -0.663457     2.023113
 C    -1.710169    -2.206803    -0.788012
 C    -0.452610    -2.630914    -1.485613
 H    -0.031357    -3.547694    -1.041492
 H     0.335063    -1.859558    -1.412092
 H    -0.641888    -2.839648    -2.547405
 C    -4.126394    -1.465742     0.459413
 H    -5.056491    -1.163746     0.945713
 C    -2.949376    -2.470102    -1.382889
 H    -2.966998    -2.973240    -2.353728
 C    -4.147916    -2.111009    -0.772663
 H    -5.098225    -2.331130    -1.265070
 H     0.459182    -3.581835     1.212236
 H     1.259487    -2.756618     2.569721
 H    -0.495479    -3.163969     2.665745
 H    -1.206548    -0.868702     3.458919
 H     0.381330    -0.043350     3.333290
 H    -1.052172     0.659393     2.531705
 C    -2.217043     2.476807     0.847840
 H    -1.788874     2.946254     1.735567
 C    -1.948651     1.336577    -1.279598
 C    -1.114776     0.748201    -2.379344
 H    -0.163450     0.341041    -1.992880
 H    -0.866516     1.509157    -3.137568
 H    -1.658142    -0.059386    -2.888390
 C    -3.603329     2.438020     0.716775
 H    -4.236904     2.866797     1.496832
 C    -3.342151     1.314734    -1.394104
 H    -3.787024     0.843025    -2.274046
 C    -4.167793     1.857029    -0.414212
 H    -5.253266     1.816354    -0.531713
 H     0.386473     2.491270     2.468141
 H     1.807602     3.145375     1.638584
 H     0.230162     3.984542     1.474617
 H     0.380860     4.049374    -1.204537
 H     2.040580     3.368442    -1.073270
 H     0.886816     2.658753    -2.221611
