  94
scf done:    -3745.101243
 C     1.531712    -0.037417     3.479011
 H     1.164461    -0.874447     4.100726
 H     2.475827    -0.409950     3.051980
 C     1.827877     1.170163     4.362059
 H     0.946323     1.500855     4.933583
 H     2.625445     0.954756     5.096029
 H     2.161042     2.045920     3.779646
Ir     0.019346     0.232549     1.964702
 C     2.904508     0.497752    -0.081613
 O     2.388705    -1.894285     1.110995
 O     1.121167    -1.173705    -0.995259
 C    -2.904674    -0.573282     0.044928
 O    -2.465789     1.953757     0.857838
 O    -1.179665     0.965831    -1.150239
 P    -1.580678     0.606582     0.420906
 P     1.582065    -0.593074     0.480672
 C    -1.098800     0.887783     3.330696
 O    -1.787058     1.261665     4.167167
 C     3.586447     0.287016    -1.284968
 H     3.271118    -0.515256    -1.953423
 C     3.300433     1.534209     0.769913
 H     2.749510     1.708039     1.697684
 C     4.663901     1.095176    -1.627804
 H     5.204741     0.939908    -2.562382
 C     4.379554     2.345367     0.436140
 H     4.694991     3.157613     1.092437
 C     5.054049     2.116229    -0.762058
Cl     6.387226     3.132693    -1.195035
 C     3.488415    -2.444931     0.492557
 C     3.326831    -3.411810    -0.496407
 H     2.322070    -3.730965    -0.779423
 C     4.763443    -2.029419     0.871106
 H     4.866848    -1.263500     1.641933
 C     4.453700    -3.956537    -1.108170
 H     4.322288    -4.713906    -1.885875
 C     5.877573    -2.584030     0.250248
 H     6.875060    -2.248816     0.547313
 C     5.745776    -3.555047    -0.750691
 C     6.955738    -4.166420    -1.395725
 H     6.719452    -4.579407    -2.386854
 H     7.356149    -4.991587    -0.783201
 H     7.764021    -3.429981    -1.515756
 C     0.088723    -2.057733    -1.175174
 C    -0.397502    -2.875414    -0.156166
 H     0.039052    -2.834156     0.843727
 C    -0.465099    -2.129043    -2.453116
 H    -0.062445    -1.487619    -3.237697
 C    -1.459706    -3.738199    -0.423293
 H    -1.846713    -4.361914     0.386421
 C    -1.518759    -2.999244    -2.699183
 H    -1.954766    -3.037083    -3.701337
 C    -2.043728    -3.817580    -1.688975
 C    -3.177767    -4.759326    -1.967663
 H    -3.708473    -5.035182    -1.045976
 H    -2.816980    -5.689780    -2.437308
 H    -3.914091    -4.311437    -2.651070
 C    -3.331676    -1.400337     1.088636
 H    -2.799426    -1.376143     2.044330
 C    -3.561368    -0.622383    -1.188256
 H    -3.226009     0.019784    -2.003566
 C    -4.411966    -2.258687     0.915403
 H    -4.750575    -2.908941     1.723325
 C    -4.639809    -1.480388    -1.374245
 H    -5.160774    -1.525319    -2.331796
 C    -5.057734    -2.290329    -0.319921
Cl    -6.389554    -3.373589    -0.555592
 C    -3.588271     2.348582     0.170509
 C    -3.475924     3.113371    -0.988139
 H    -2.487418     3.402311    -1.349503
 C    -4.844916     1.978864     0.648020
 H    -4.909918     1.374215     1.554349
 C    -4.629606     3.497864    -1.668482
 H    -4.535261     4.096028    -2.579056
 C    -5.986166     2.371219    -0.042335
 H    -6.967518     2.070997     0.335385
 C    -5.901953     3.134973    -1.213876
 C    -7.142261     3.572004    -1.938341
 H    -7.898687     2.773161    -1.959854
 H    -6.922493     3.861682    -2.975798
 H    -7.604482     4.442830    -1.444068
 C    -0.144661     1.795440    -1.486284
 C     0.312251     2.813572    -0.648691
 H    -0.156824     2.976989     0.323281
 C     0.449114     1.600366    -2.733161
 H     0.070502     0.805279    -3.376140
 C     1.384146     3.604749    -1.058577
 H     1.746586     4.388164    -0.387805
 C     1.512449     2.403424    -3.125004
 H     1.979364     2.231333    -4.098835
 C     2.008282     3.417573    -2.294192
 C     3.152078     4.285226    -2.729950
 H     3.893601     3.714545    -3.307991
 H     3.673408     4.727531    -1.869560
 H     2.803322     5.113441    -3.369553
