  80
scf done:    -1994.657741
 C    -2.152202    -2.681693     0.081933
 H    -2.293896    -3.212922     1.040022
 H    -3.060029    -2.068858    -0.040670
 C    -2.103686    -3.698015    -1.055737
 H    -1.285470    -4.424078    -0.925226
 H    -3.043571    -4.275842    -1.136793
 H    -1.939398    -3.214312    -2.033503
Ir    -0.394675    -1.470616     0.104242
 C    -1.517712     1.808406    -0.722494
 C    -3.484430     0.340427     0.833332
 C    -0.931385     1.281830     2.116923
 C     2.288555     0.841355     0.767692
 C     3.056452    -1.529527    -0.610411
 C     1.403440     0.447723    -2.177554
 P     1.603275    -0.341321    -0.494849
 P    -1.635083     0.502721     0.573893
 C     0.503686    -2.997695     0.606458
 O     1.049509    -3.889285     1.105423
 C    -0.809424     2.996992    -0.500361
 H    -0.364761     3.193156     0.475223
 C    -2.048479     1.559853    -2.011421
 C    -2.818548     0.315163    -2.344691
 H    -3.883694     0.425257    -2.083861
 H    -2.434558    -0.563605    -1.801878
 H    -2.765677     0.100286    -3.420605
 C    -0.631105     3.938666    -1.511565
 H    -0.074867     4.856137    -1.306398
 C    -1.848042     2.513966    -3.014803
 H    -2.249028     2.314993    -4.012578
 C    -1.151502     3.696039    -2.778351
 H    -1.013191     4.421075    -3.583742
 H    -3.773953    -0.317454     0.000368
 C    -3.804848    -0.418234     2.116878
 H    -4.856574    -0.745472     2.100048
 H    -3.176381    -1.312534     2.230563
 H    -3.674030     0.214007     3.007128
 C    -4.293120     1.626036     0.704194
 H    -4.079894     2.162168    -0.231735
 H    -5.368681     1.384358     0.715589
 H    -4.106271     2.320770     1.533961
 H     0.060408     1.609797     1.762694
 C    -1.677455     2.484329     2.686692
 H    -1.049304     2.972470     3.449297
 H    -1.935085     3.239969     1.931913
 H    -2.608601     2.177633     3.184766
 C    -0.678491     0.231307     3.197042
 H    -0.224340    -0.670619     2.759834
 H     0.002135     0.643079     3.957831
 H    -1.607386    -0.067729     3.701605
 C     2.406588     0.176570     2.004919
 H     2.100207    -0.871483     2.066086
 C     2.634483     2.209277     0.710261
 C     2.645673     3.059348    -0.528174
 H     1.868573     2.793887    -1.248724
 H     3.619917     2.986470    -1.038086
 H     2.505488     4.116917    -0.263012
 C     2.854235     0.809994     3.154709
 H     2.932460     0.250644     4.089625
 C     3.046920     2.841129     1.897134
 H     3.292854     3.905970     1.853896
 C     3.166287     2.166847     3.104281
 H     3.496443     2.698215     3.999949
 H     2.978950    -2.049881     0.359171
 C     2.850082    -2.578165    -1.697831
 H     3.549427    -3.415333    -1.546187
 H     1.828618    -2.985850    -1.685129
 H     3.044152    -2.167080    -2.699812
 C     4.441903    -0.897698    -0.677366
 H     4.592387    -0.150054     0.114658
 H     5.207546    -1.679720    -0.546414
 H     4.633358    -0.415010    -1.645152
 H     0.819762     1.353551    -1.946931
 C     2.658100     0.829664    -2.954708
 H     2.378047     1.451232    -3.820781
 H     3.388998     1.392605    -2.363992
 H     3.162993    -0.063839    -3.349022
 C     0.503439    -0.438701    -3.040723
 H    -0.354732    -0.820568    -2.467345
 H     0.128740     0.138805    -3.900559
 H     1.046485    -1.311654    -3.429351
