  82
scf done:    -3984.724295
 C     1.644683     0.271663     3.344464
 H     1.381545    -0.545012     4.040155
 H     2.600907    -0.049030     2.900629
 C     1.866537     1.566499     4.118538
 H     0.983168     1.858917     4.707893
 H     2.712357     1.481667     4.824426
 H     2.089364     2.419807     3.455920
Ir     0.053073     0.344759     1.890436
 C     2.952369     0.456758    -0.188972
 O     2.353419    -1.844663     1.166005
 O     1.143802    -1.221529    -1.001049
 C    -2.892614    -0.574205     0.001887
 O    -2.519829     1.950635     0.821728
 O    -1.183652     1.015058    -1.185985
 P    -1.593317     0.628137     0.380236
 P     1.601731    -0.556356     0.444047
 C    -1.084918     0.876557     3.295673
 O    -1.791185     1.132242     4.160954
 C     3.695671     0.085078    -1.317370
 H     3.429706    -0.816716    -1.871012
 C     3.286693     1.623232     0.506157
 H     2.692744     1.921766     1.373366
 C     4.764848     0.864200    -1.738821
 H     5.350328     0.584875    -2.615925
 C     4.359989     2.406764     0.093096
 H     4.622514     3.322723     0.623751
 C     5.091531     2.021594    -1.028508
Cl     6.416758     2.993511    -1.556274
 C     3.450537    -2.465573     0.617706
 C     3.283012    -3.495710    -0.306948
 H     2.276423    -3.805021    -0.593601
 C     4.726761    -2.062337     1.009089
 H     4.830244    -1.251820     1.732552
 C     4.401633    -4.122574    -0.850536
 H     4.303333    -4.933494    -1.574295
 C     5.846394    -2.686932     0.468844
 H     6.857129    -2.390830     0.754429
 C     5.669012    -3.707617    -0.458435
 F     6.738716    -4.303715    -0.981678
 C     0.093067    -2.085652    -1.153177
 C    -0.406756    -2.865026    -0.108170
 H     0.033962    -2.801386     0.888498
 C    -0.458912    -2.181665    -2.431495
 H    -0.038883    -1.576069    -3.235171
 C    -1.486843    -3.714558    -0.340159
 H    -1.909087    -4.320212     0.462706
 C    -1.532833    -3.031432    -2.663186
 H    -1.991502    -3.113145    -3.649961
 C    -2.045142    -3.779056    -1.607840
 F    -3.098075    -4.566211    -1.820582
 C    -3.341980    -1.367498     1.063224
 H    -2.838820    -1.306097     2.032883
 C    -3.516972    -0.672777    -1.245217
 H    -3.166019    -0.056841    -2.074357
 C    -4.410750    -2.239906     0.891956
 H    -4.767017    -2.862677     1.713818
 C    -4.581697    -1.548590    -1.429188
 H    -5.073262    -1.637360    -2.399009
 C    -5.023421    -2.325345    -0.358794
Cl    -6.343571    -3.415943    -0.585739
 C    -3.671744     2.289442     0.154929
 C    -3.613423     3.020292    -1.031699
 H    -2.645020     3.326019    -1.430572
 C    -4.901687     1.899343     0.684933
 H    -4.920556     1.327437     1.613942
 C    -4.791116     3.355314    -1.695701
 H    -4.776752     3.927941    -2.624699
 C    -6.080219     2.231854     0.025052
 H    -7.055238     1.935961     0.415798
 C    -6.009198     2.953080    -1.161421
 F    -7.135514     3.268950    -1.799358
 C    -0.137435     1.857009    -1.457354
 C     0.166654     2.953447    -0.643987
 H    -0.439695     3.166245     0.237737
 C     0.622947     1.595388    -2.596393
 H     0.362896     0.738568    -3.217517
 C     1.253547     3.764477    -0.959088
 H     1.520276     4.617231    -0.332665
 C     1.708205     2.405687    -2.912159
 H     2.330148     2.209450    -3.786736
 C     2.019003     3.474393    -2.080350
 F     3.080957     4.229599    -2.358745
