  90
scf done:    -3444.302523
 C    -1.338008     1.141344    -3.188143
 H    -1.643478     0.465663    -4.005228
 H    -2.278935     1.432601    -2.692019
 C    -0.666444     2.379480    -3.770386
 H     0.219386     2.122394    -4.373378
 H    -1.352129     2.950928    -4.423736
 H    -0.324612     3.074162    -2.984232
Ir    -0.010322     0.213580    -1.807606
 C    -1.916277     1.327249     0.995015
 C    -3.445950    -0.146035    -0.946470
 C    -1.702779    -1.580485     0.672517
 C     1.887599    -1.526605     0.788291
 C     3.417617     0.165252    -0.940148
 C     1.729059     1.386057     0.915784
 P     1.720351    -0.028255    -0.252496
 P    -1.751504    -0.002839    -0.251727
 C     0.964604    -0.413807    -3.253262
 O     1.462316    -0.977873    -4.129552
 C    -1.409037     1.221336     2.293906
 H    -0.991812     0.274796     2.640134
 C    -2.419650     2.565206     0.569666
 H    -2.795395     2.678267    -0.450936
 C    -1.422047     2.310574     3.160548
 H    -1.018233     2.225473     4.170222
 C    -2.446596     3.659228     1.426765
 H    -2.845080     4.619810     1.096518
 C    -1.947282     3.522304     2.721527
Cl    -1.969343     4.887087     3.791045
 C    -3.595307    -0.878318    -2.130316
 H    -2.702542    -1.246409    -2.643460
 C    -4.589688     0.319043    -0.293607
 H    -4.502837     0.878654     0.640526
 C    -4.858856    -1.127939    -2.649863
 H    -4.953707    -1.701198    -3.576345
 C    -5.853876     0.071005    -0.825872
 H    -6.738109     0.445883    -0.302861
 C    -6.012562    -0.652714    -2.011252
 C    -7.370687    -0.900698    -2.598367
 H    -8.169849    -0.682893    -1.876012
 H    -7.538697    -0.264393    -3.483006
 H    -7.480368    -1.945250    -2.927145
 C    -2.449291    -1.802128     1.833713
 H    -3.032626    -0.992287     2.278604
 C    -1.016256    -2.653938     0.093957
 H    -0.444444    -2.473913    -0.821864
 C    -2.470222    -3.062955     2.424175
 H    -3.051011    -3.218763     3.337525
 C    -1.062480    -3.914402     0.676514
 H    -0.518986    -4.740743     0.210926
 C    -1.779840    -4.140736     1.858050
 C    -1.796245    -5.499063     2.493117
 H    -0.792279    -5.769450     2.856919
 H    -2.490418    -5.540447     3.343972
 H    -2.096528    -6.272028     1.768755
 C     2.410424    -2.687147     0.200372
 H     2.793053    -2.652794    -0.823322
 C     1.373753    -1.610277     2.086682
 H     0.941247    -0.727237     2.559095
 C     2.453977    -3.887995     0.899180
 H     2.870183    -4.787186     0.442136
 C     1.402146    -2.807523     2.796001
 H     0.994804    -2.867980     3.806071
 C     1.949979    -3.938707     2.198236
Cl     1.996610    -5.435908     3.073016
 C     3.589595     0.973146    -2.068828
 H     2.711031     1.402407    -2.558177
 C     4.555049    -0.352941    -0.310676
 H     4.454943    -0.970143     0.585013
 C     4.861925     1.238158    -2.564695
 H     4.969972     1.872831    -3.448580
 C     5.824633    -0.090945    -0.817425
 H     6.699386    -0.511487    -0.313283
 C     6.003043     0.704357    -1.955227
 C     7.370166     0.955842    -2.519249
 H     7.611723     0.218534    -3.303218
 H     7.439341     1.952671    -2.978612
 H     8.147434     0.877881    -1.745513
 C     2.466835     1.408576     2.102938
 H     3.031844     0.527880     2.417348
 C     1.061323     2.551204     0.518962
 H     0.496465     2.542789    -0.419803
 C     2.499390     2.557026     2.890259
 H     3.074909     2.554086     3.820137
 C     1.113977     3.699574     1.298950
 H     0.581785     4.596442     0.971244
 C     1.825235     3.721363     2.505468
 C     1.852996     4.957896     3.353522
 H     2.197948     5.828503     2.774132
 H     0.844283     5.196414     3.726053
 H     2.518651     4.840017     4.219836
