  82
scf done:    -3587.962483
 C     2.023772    -0.532674    -3.000993
 H     1.740515    -0.530214    -4.065994
 H     2.574857     0.413297    -2.853657
 C     2.948575    -1.711902    -2.713033
 H     2.453306    -2.675128    -2.915853
 H     3.863562    -1.679018    -3.332332
 H     3.275232    -1.733945    -1.660387
Ir     0.294286    -0.706365    -1.733971
 C     3.115947     0.560515     0.047455
 O     1.491413     2.313306    -0.986794
 O     0.597886     0.963286     1.042617
 C    -2.523116     0.161138     0.314365
 O    -2.333767    -2.341538    -0.742489
 O    -0.916504    -1.632686     1.277807
 P    -1.347835    -1.098724    -0.242138
 P     1.377153     0.779219    -0.392765
 C    -0.666103    -1.405839    -3.198802
 O    -1.276245    -1.705556    -4.122259
 C     3.430091    -0.438945     0.974936
 H     2.637224    -1.006391     1.466134
 C     4.142360     1.271339    -0.582968
 H     3.897535     2.053185    -1.304023
 C     4.755454    -0.720617     1.282038
 H     5.004076    -1.496945     2.006779
 C     5.472278     0.990122    -0.285811
 H     6.282169     1.536408    -0.771512
 C     5.769619    -0.004593     0.645806
Cl     7.421565    -0.357087     1.016314
 C     0.403201     2.952772    -1.544185
 C     0.006881     2.655355    -2.846803
 H     0.543101     1.888187    -3.406286
 C    -0.262339     3.912918    -0.786740
 H     0.069371     4.111930     0.234196
 C    -1.079013     3.336773    -3.393422
 H    -1.398389     3.106587    -4.412401
 C    -1.339208     4.595786    -1.349464
 H    -1.863689     5.351397    -0.760022
 C    -1.751804     4.308008    -2.650205
 H    -2.597696     4.843050    -3.087989
 C     0.836539     1.785189     2.109500
 C     1.851479     2.741917     2.146303
 H     2.515523     2.878521     1.293683
 C    -0.030453     1.622305     3.191843
 H    -0.824230     0.877954     3.109732
 C     1.997630     3.526745     3.290595
 H     2.793742     4.274346     3.322163
 C     0.127060     2.415094     4.323370
 H    -0.554625     2.288322     5.167766
 C     1.144252     3.369214     4.380136
 H     1.267465     3.990780     5.269413
 C    -2.745303     1.249888    -0.533327
 H    -2.180471     1.334045    -1.467093
 C    -3.221858     0.069514     1.525401
 H    -3.046736    -0.777943     2.190517
 C    -3.665170     2.235529    -0.186972
 H    -3.837337     3.089637    -0.841879
 C    -4.135655     1.053183     1.882953
 H    -4.686077     0.993306     2.823059
 C    -4.351941     2.129630     1.020279
Cl    -5.486413     3.359405     1.464354
 C    -3.409002    -2.782503    -0.012063
 C    -4.680726    -2.292149    -0.306662
 H    -4.791773    -1.554638    -1.103480
 C    -3.224062    -3.723787     1.000481
 H    -2.219684    -4.098519     1.205021
 C    -5.775708    -2.745304     0.424824
 H    -6.772484    -2.360957     0.196197
 C    -4.326538    -4.168773     1.727274
 H    -4.185327    -4.907000     2.520312
 C    -5.602274    -3.680256     1.445245
 H    -6.462923    -4.032434     2.018147
 C     0.220876    -2.331521     1.547159
 C     0.748466    -2.207220     2.834844
 H     0.245885    -1.551538     3.547455
 C     0.845995    -3.154315     0.604787
 H     0.425788    -3.254176    -0.399009
 C     1.903544    -2.905697     3.178214
 H     2.311347    -2.804038     4.186697
 C     2.012164    -3.832987     0.956883
 H     2.504432    -4.462746     0.212447
 C     2.544543    -3.716880     2.240075
 H     3.453942    -4.258348     2.509214
