  98
scf done:    -3149.313705
 C    -0.926445    -3.552562    -0.836554
 H    -0.736061    -4.503051    -0.313000
 H    -2.022524    -3.464147    -0.864617
 C    -0.385450    -3.662166    -2.258648
 H     0.709733    -3.781454    -2.273616
 H    -0.814008    -4.524754    -2.802924
 H    -0.611999    -2.767373    -2.865189
Ir     0.049153    -1.908211     0.122157
 C    -1.004912     0.837923    -1.848791
 C    -3.101719    -1.101879    -1.480483
 C    -2.319860     0.586892     0.726987
 C     0.952467     1.169510     1.739684
 C     3.020677    -0.797789     1.652582
 C     2.300737     0.599100    -0.769144
 P     1.549119    -0.218598     0.697854
 P    -1.611097    -0.408353    -0.643797
 C     0.844744    -3.136551     1.246364
 O     1.235761    -3.869004     2.051437
 C    -0.900539     2.203782    -1.559677
 H    -1.296436     2.604866    -0.626467
 C    -0.465449     0.371897    -3.057121
 H    -0.507907    -0.694459    -3.294600
 C    -0.253461     3.076602    -2.432839
 H    -0.159798     4.137460    -2.194188
 C     0.173973     1.231807    -3.942694
 H     0.605067     0.859311    -4.873246
 C     0.291788     2.583148    -3.615215
Cl     1.148215     3.651890    -4.673597
 H    -2.731002    -1.766742    -2.277815
 H    -3.642073    -0.277468    -1.970516
 C    -3.997210    -1.877866    -0.517002
 H    -3.369995    -2.426477     0.205506
 H    -4.598958    -1.172034     0.081016
 C    -4.940364    -2.869555    -1.200726
 H    -4.310018    -3.572554    -1.777568
 C    -5.703957    -3.676446    -0.157992
 H    -5.016964    -4.204859     0.520878
 H    -6.356215    -4.427265    -0.630137
 H    -6.343064    -3.020114     0.456424
 C    -5.893095    -2.182423    -2.172377
 H    -6.564473    -2.911268    -2.652077
 H    -5.356704    -1.652098    -2.973796
 H    -6.524067    -1.445637    -1.646468
 H    -1.479378     1.169222     1.132082
 H    -2.559635    -0.147084     1.511087
 C    -3.508572     1.491537     0.412988
 H    -3.395123     1.948758    -0.583850
 H    -4.433730     0.893126     0.356958
 C    -3.702612     2.609923     1.441844
 H    -2.764321     3.196856     1.470930
 C    -4.826263     3.544691     1.012563
 H    -4.638953     3.970490     0.014155
 H    -4.942304     4.380505     1.719536
 H    -5.789035     3.008482     0.970391
 C    -3.943610     2.066474     2.845133
 H    -4.051891     2.886132     3.571028
 H    -3.110654     1.435498     3.188602
 H    -4.864293     1.459534     2.877595
 C     0.411918     0.847231     2.994148
 H     0.440489    -0.188962     3.343121
 C     0.858907     2.494322     1.297393
 H     1.262423     2.783021     0.326088
 C    -0.213826     1.808091     3.779314
 H    -0.643331     1.549039     4.748365
 C     0.219297     3.465817     2.066314
 H     0.132929     4.493827     1.709928
 C    -0.322730     3.114482     3.299647
Cl    -1.166501     4.304080     4.233287
 H     2.624035    -1.251819     2.576084
 H     3.618093     0.076664     1.953587
 C     3.848473    -1.819127     0.880255
 H     3.170965    -2.481137     0.314119
 H     4.465311    -1.302022     0.123331
 C     4.755288    -2.685787     1.755897
 H     4.099897    -3.207684     2.477703
 C     5.450269    -3.744981     0.909407
 H     4.719496    -4.370868     0.374339
 H     6.072772    -4.408889     1.528990
 H     6.108146    -3.278756     0.156571
 C     5.765580    -1.856618     2.540458
 H     6.409325    -2.498543     3.161557
 H     5.276380    -1.133983     3.211125
 H     6.421393    -1.289484     1.857777
 H     1.486325     1.157727    -1.254430
 H     2.527931    -0.228683    -1.458865
 C     3.515683     1.494815    -0.553160
 H     3.394379     2.093501     0.365054
 H     4.413509     0.875025    -0.384571
 C     3.779536     2.447856    -1.723365
 H     2.871889     3.068967    -1.852223
 C     4.942665     3.378804    -1.404867
 H     4.764845     3.944905    -0.476950
 H     5.108824     4.104174    -2.216162
 H     5.877019     2.808136    -1.272391
 C     4.011296     1.704631    -3.033626
 H     4.184940     2.409412    -3.860559
 H     3.146713     1.083724    -3.311314
 H     4.892441     1.044867    -2.959706
