  90
scf done:    -3444.312692
 C     2.487388    -1.451442    -2.537731
 H     2.466551    -1.151742    -3.599697
 H     3.320517    -0.868013    -2.106332
 C     2.832726    -2.934627    -2.439884
 H     2.071177    -3.562893    -2.928531
 H     3.804624    -3.172246    -2.911603
 H     2.893421    -3.277376    -1.392440
Ir     0.600650    -1.065155    -1.588683
 C     0.992239     1.070019     1.306110
 C     3.197935    -0.816393     0.801290
 C     2.817913     1.555004    -0.855106
 C    -2.452359     0.401064    -0.369511
 C    -2.537225    -2.407996    -1.016118
 C    -1.237482    -1.457910     1.419716
 P    -1.379628    -1.081845    -0.384993
 P     1.868889     0.181042    -0.036341
 C    -0.214287    -1.589440    -3.166554
 O    -0.705769    -1.795428    -4.191104
 C     0.016300     2.003785     0.925935
 H    -0.161025     2.207851    -0.128756
 C     1.165603     0.812354     2.670504
 H     1.894744     0.076998     3.010556
 C    -0.763047     2.662653     1.869900
 H    -1.524513     3.378390     1.556905
 C     0.383078     1.453837     3.628088
 H     0.513305     1.238617     4.689974
 C    -0.581823     2.374347     3.221068
Cl    -1.573089     3.156522     4.404677
 H     3.348455    -1.674845     0.133070
 H     2.753402    -1.231625     1.718312
 C     4.503296    -0.120008     1.047514
 C     4.692808     0.759650     2.121485
 H     3.881578     0.936314     2.830195
 C     5.564888    -0.313016     0.154243
 H     5.433222    -0.996672    -0.689409
 C     5.904702     1.425201     2.294153
 H     6.030833     2.106015     3.139518
 C     6.777224     0.351389     0.324422
 H     7.590964     0.183476    -0.385153
 C     6.951625     1.225926     1.395480
 H     7.900827     1.749400     1.530904
 H     3.487900     1.056906    -1.572077
 H     3.447873     2.022358    -0.084935
 C     1.956393     2.572741    -1.540291
 C     1.822100     3.859960    -1.008228
 H     2.375004     4.125218    -0.103115
 C     1.239812     2.245859    -2.699525
 H     1.321924     1.234182    -3.106818
 C     0.978443     4.795616    -1.605405
 H     0.881357     5.793605    -1.171407
 C     0.398904     3.180748    -3.298549
 H    -0.153367     2.908334    -4.201689
 C     0.259719     4.456843    -2.750585
 H    -0.401843     5.188912    -3.220324
 C    -2.270287     1.331764    -1.398816
 H    -1.510930     1.132809    -2.161162
 C    -3.387679     0.676328     0.635600
 H    -3.557735    -0.032177     1.447936
 C    -2.985791     2.524718    -1.420988
 H    -2.819178     3.262028    -2.207634
 C    -4.109194     1.866069     0.627993
 H    -4.826035     2.091157     1.419116
 C    -3.896585     2.786947    -0.397923
Cl    -4.758605     4.288713    -0.385926
 H    -1.936145    -3.329904    -1.041752
 H    -2.736265    -2.127801    -2.061425
 C    -3.803116    -2.597054    -0.246833
 C    -4.947517    -1.848711    -0.553445
 H    -4.919507    -1.148029    -1.391649
 C    -3.862041    -3.495139     0.828279
 H    -2.983436    -4.100982     1.069415
 C    -6.111791    -1.984773     0.198613
 H    -6.993639    -1.392738    -0.057823
 C    -5.025157    -3.630501     1.583712
 H    -5.051655    -4.337891     2.416104
 C    -6.153252    -2.871888     1.273640
 H    -7.066521    -2.978650     1.863651
 H    -2.201293    -1.865593     1.769841
 H    -1.115888    -0.485998     1.921621
 C    -0.111954    -2.372230     1.828059
 C     0.311569    -2.359245     3.164954
 H    -0.184262    -1.688976     3.872270
 C     0.534208    -3.242047     0.940646
 H     0.254381    -3.250598    -0.118848
 C     1.354741    -3.173442     3.598985
 H     1.669782    -3.140683     4.644951
 C     1.578455    -4.060689     1.373135
 H     2.071034    -4.722945     0.657205
 C     1.996491    -4.027463     2.700764
 H     2.818508    -4.663618     3.036919
