  96
scf done:    -2603.895331
 C     1.464876    -1.760337    -2.338925
 H     1.440331    -1.635495    -3.433556
 H     2.506788    -1.548653    -2.053379
 C     1.120093    -3.196482    -1.969491
 H     0.109700    -3.473281    -2.311810
 H     1.827761    -3.914991    -2.423975
 H     1.156646    -3.362357    -0.880016
Ir     0.021230    -0.541253    -1.342071
 C     2.623222    -1.484916     0.737462
 C     3.101633     1.005469    -0.912096
 C     1.599428     1.162826     1.478134
 C    -2.321078     1.836418     0.114369
 C    -3.491055    -0.640073    -0.647094
 C    -1.653593    -0.832694     1.602707
 P    -1.868578     0.023748    -0.010607
 P     1.846799     0.037157     0.036358
 C    -0.719524    -0.272520    -3.002073
 O    -1.005884     0.084208    -4.068208
 C     1.747147    -2.149372     1.614999
 H     0.777572    -1.700086     1.838797
 C     3.841974    -2.106292     0.383398
 C     4.853737    -1.562371    -0.587116
 H     5.480435    -0.781569    -0.131036
 H     4.395433    -1.119681    -1.479105
 H     5.523255    -2.369466    -0.914392
 C     2.066030    -3.370190     2.192790
 H     1.356657    -3.846675     2.872513
 C     4.134384    -3.347172     0.974591
 H     5.072601    -3.837295     0.700910
 C     3.279213    -3.973863     1.871748
 H     3.551675    -4.940845     2.301248
 C     2.832479     1.231984    -2.267344
 H     1.925656     0.790665    -2.689040
 C     4.246655     1.587158    -0.322398
 C     4.627092     1.426612     1.121519
 H     4.370876     0.436076     1.519344
 H     4.108017     2.164807     1.752502
 H     5.708365     1.579971     1.248991
 C     3.675322     2.007380    -3.056004
 H     3.440722     2.165530    -4.110915
 C     5.081103     2.363268    -1.136740
 H     5.975074     2.808879    -0.691533
 C     4.809327     2.577000    -2.484819
 H     5.485873     3.189277    -3.086226
 C     1.917900     0.781249     2.786740
 H     2.356778    -0.200321     2.971135
 C     1.059301     2.448263     1.240087
 C     0.784810     2.978667    -0.133916
 H     0.420747     2.190472    -0.812345
 H     1.706863     3.386534    -0.578646
 H     0.033828     3.779256    -0.099007
 C     1.689989     1.631125     3.863976
 H     1.952492     1.309463     4.874604
 C     0.816596     3.277606     2.343391
 H     0.379114     4.263309     2.162836
 C     1.121521     2.883474     3.643272
 H     0.924285     3.558180     4.480004
 C    -2.329487     2.336736    -1.205017
 H    -2.089693     1.656748    -2.025345
 C    -2.634089     2.728776     1.165970
 C    -2.754996     2.413390     2.632441
 H    -1.818460     2.649517     3.162710
 H    -2.997916     1.369885     2.840405
 H    -3.542891     3.038923     3.076626
 C    -2.604889     3.660255    -1.507611
 H    -2.600171     3.991689    -2.548023
 C    -2.877400     4.075464     0.833567
 H    -3.107605     4.766310     1.649712
 C    -2.863029     4.551173    -0.468548
 H    -3.064977     5.605649    -0.670839
 C    -3.489667    -1.271991    -1.894666
 H    -2.541955    -1.380292    -2.421011
 C    -4.708390    -0.555240     0.068495
 C    -4.837130     0.087519     1.413906
 H    -4.732079     1.179583     1.335415
 H    -4.069359    -0.273390     2.112919
 H    -5.821835    -0.124878     1.851752
 C    -4.646309    -1.800625    -2.458023
 H    -4.600335    -2.286281    -3.435263
 C    -5.861221    -1.100612    -0.510948
 H    -6.800238    -1.038461     0.045816
 C    -5.845308    -1.713009    -1.760046
 H    -6.766492    -2.125167    -2.179126
 C    -1.118274    -0.142608     2.696263
 H    -0.849887     0.904516     2.588110
 C    -1.841724    -2.235123     1.703009
 C    -2.204259    -3.114593     0.541671
 H    -1.649257    -2.820418    -0.363369
 H    -3.275490    -3.068866     0.296970
 H    -1.949775    -4.158748     0.769920
 C    -0.884813    -0.771664     3.915421
 H    -0.472860    -0.196578     4.746722
 C    -1.606831    -2.843469     2.942292
 H    -1.763444    -3.922437     3.025192
 C    -1.158240    -2.128350     4.049254
 H    -0.988911    -2.639206     5.000079
