  96
scf done:    -3000.699844
 C     0.463952    -3.288677    -2.193516
 H    -0.109859    -3.818415    -2.970249
 H     1.462059    -3.142953    -2.636867
 C     0.545978    -4.177342    -0.956701
 H    -0.454499    -4.418345    -0.566723
 H     1.055099    -5.137212    -1.163449
 H     1.084651    -3.699972    -0.119417
Ir    -0.494354    -1.476117    -1.626133
 C     1.702237    -0.573175     1.147091
 C     3.027696    -1.603354    -1.236049
 C     1.840905     1.063786    -1.324688
 C    -1.746042     1.838876    -0.557966
 C    -3.672177    -0.069109    -1.224440
 C    -2.109283    -0.404847     1.232079
 P    -1.919296     0.012809    -0.558684
 P     1.516518    -0.661095    -0.674561
 C    -1.637189    -1.709449    -3.052655
 O    -2.258773    -1.754945    -4.026705
 C     1.229316     0.530512     1.871133
 H     0.796944     1.386256     1.350368
 C     2.214042    -1.657082     1.869921
 H     2.538602    -2.561401     1.351421
 C     1.312975     0.563026     3.259578
 H     0.945735     1.443775     3.793737
 C     2.300341    -1.618109     3.259243
 H     2.708892    -2.480179     3.793835
 C     1.863027    -0.503250     3.982409
 C     1.988660    -0.442112     5.475506
 H     1.119163     0.052239     5.933158
 H     2.084820    -1.445013     5.914870
 H     2.881503     0.134558     5.769327
 H     2.945591    -2.609461    -0.800521
 H     2.844232    -1.734401    -2.311943
 C     4.380436    -1.004424    -1.014777
 C     4.973182    -0.221114    -2.015818
 H     4.457792    -0.089256    -2.970856
 C     5.094051    -1.189805     0.178070
 H     4.672043    -1.805408     0.972825
 C     6.208308     0.392345    -1.827904
 H     6.665959     1.008053    -2.603958
 C     6.332614    -0.587755     0.382448
 H     6.888117    -0.727585     1.311449
 C     6.871689     0.207222    -0.621842
 F     8.052433     0.791031    -0.428652
 H     2.511665     0.897388    -2.182670
 H     0.880254     1.381192    -1.748986
 C     2.380580     2.148737    -0.433160
 C     1.638834     3.325818    -0.276845
 H     0.691607     3.434796    -0.805706
 C     3.589650     2.038418     0.265085
 H     4.187084     1.132748     0.181680
 C     2.072426     4.357337     0.552177
 H     1.487169     5.270036     0.679000
 C     4.041388     3.060619     1.093476
 H     4.981617     2.971736     1.640499
 C     3.273520     4.209999     1.232150
 F     3.696332     5.187689     2.034428
 C    -1.577487     2.449647    -1.810157
 H    -1.467481     1.822368    -2.701078
 C    -1.866568     2.656858     0.567928
 H    -2.018492     2.220888     1.556971
 C    -1.558359     3.834303    -1.931001
 H    -1.435568     4.287169    -2.918846
 C    -1.822803     4.045591     0.443995
 H    -1.919358     4.665418     1.339539
 C    -1.675795     4.660533    -0.802507
 C    -1.601755     6.152818    -0.933112
 H    -1.998751     6.657086    -0.041067
 H    -0.557443     6.482683    -1.064037
 H    -2.163496     6.509005    -1.809360
 H    -3.598717     0.332832    -2.246391
 H    -3.913039    -1.136124    -1.333371
 C    -4.702935     0.655265    -0.419420
 C    -5.431729    -0.007719     0.578055
 H    -5.277450    -1.078009     0.739191
 C    -4.936684     2.025357    -0.605155
 H    -4.384913     2.566068    -1.377331
 C    -6.356671     0.666379     1.371521
 H    -6.928488     0.152520     2.146179
 C    -5.857417     2.714287     0.178230
 H    -6.043291     3.780246     0.035743
 C    -6.554976     2.025071     1.162413
 F    -7.436559     2.679890     1.917328
 H    -1.310987     0.134081     1.760968
 H    -3.070159    -0.001545     1.594662
 C    -1.975241    -1.874244     1.528356
 C    -2.743435    -2.848067     0.875017
 H    -3.456035    -2.558736     0.101934
 C    -1.061364    -2.302360     2.496474
 H    -0.444658    -1.564806     3.013062
 C    -2.613469    -4.199283     1.181289
 H    -3.205890    -4.959541     0.669621
 C    -0.911834    -3.650428     2.811420
 H    -0.191445    -3.983076     3.560750
 C    -1.694043    -4.585249     2.148528
 F    -1.556071    -5.878826     2.438150
