 108
scf done:    -2761.075615
 C     0.532904    -1.861664    -3.140161
 H     0.947643    -1.399304    -4.054546
 H     1.389014    -2.363891    -2.655485
 C    -0.478627    -2.935477    -3.528348
 H    -1.327773    -2.519755    -4.094369
 H    -0.025164    -3.727150    -4.153075
 H    -0.902758    -3.436490    -2.641881
Ir    -0.330351    -0.357886    -1.877874
 C     1.841128    -2.288734     0.183100
 C     3.125059    -0.527983    -1.715905
 C     1.859108     0.548805     0.833326
 C    -0.854506     2.365453     0.410157
 C    -3.224126     1.438115    -0.958082
 C    -2.038475    -0.133989     1.171046
 P    -1.571710     0.843782    -0.324904
 P     1.626969    -0.646500    -0.583116
 C    -1.404268     0.143649    -3.304031
 O    -1.974285     0.540578    -4.226312
 C     0.745079    -3.155703     0.243251
 H    -0.198950    -2.855877    -0.216904
 C     3.049453    -2.685120     0.770870
 H     3.918948    -2.023588     0.748008
 C     0.847147    -4.381773     0.893462
 H    -0.025923    -5.038648     0.935245
 C     3.143366    -3.911408     1.420249
 H     4.088700    -4.197207     1.889681
 C     2.045963    -4.779671     1.496187
 C     2.164559    -6.111555     2.176247
 H     2.878104    -6.075790     3.012280
 H     1.194421    -6.454355     2.563481
 H     2.525709    -6.879065     1.471260
 H     3.614077    -1.510060    -1.669644
 H     2.678316    -0.441946    -2.716342
 C     4.131558     0.554882    -1.489004
 C     5.409061     0.227361    -1.022058
 H     5.646067    -0.821196    -0.822596
 C     3.824155     1.901941    -1.772975
 C     2.517202     2.279468    -2.403574
 H     1.650686     1.741801    -1.982230
 H     2.523974     2.025604    -3.477423
 H     2.330199     3.358424    -2.316849
 C     6.372937     1.205832    -0.796985
 H     7.362638     0.925011    -0.429815
 C     4.793318     2.877558    -1.513051
 H     4.553156     3.925005    -1.715808
 C     6.055906     2.542377    -1.026471
 H     6.794078     3.325861    -0.839356
 H     2.023259     1.527478     0.357387
 H     0.853469     0.600138     1.266900
 C     2.873465     0.302538     1.909239
 C     4.130648     0.910388     1.825157
 H     4.338151     1.579120     0.989329
 C     2.572139    -0.492893     3.037500
 C     1.201613    -1.060557     3.266013
 H     0.873742    -1.711353     2.442920
 H     0.455286    -0.254622     3.368302
 H     1.172899    -1.653352     4.190113
 C     5.113298     0.687119     2.784972
 H     6.088833     1.168395     2.683163
 C     3.572297    -0.709578     3.991301
 H     3.342360    -1.334043     4.859034
 C     4.839065    -0.144426     3.867104
 H     5.600393    -0.336422     4.627118
 C    -0.324945     3.301927    -0.487248
 H    -0.401931     3.113650    -1.562107
 C    -0.722230     2.615677     1.780065
 H    -1.129205     1.918978     2.514961
 C     0.316998     4.446446    -0.029201
 H     0.717982     5.163576    -0.751252
 C    -0.059777     3.753895     2.234402
 H     0.043118     3.918903     3.310435
 C     0.477307     4.687212     1.342127
 C     1.231770     5.887249     1.832123
 H     0.935248     6.161861     2.854374
 H     2.315991     5.685339     1.847749
 H     1.071855     6.758641     1.180353
 H    -2.981239     2.304561    -1.594684
 H    -3.571971     0.646664    -1.633577
 C    -4.259440     1.778764     0.074309
 C    -4.060520     2.874485     0.926013
 H    -3.171365     3.493746     0.794077
 C    -5.435730     1.008426     0.211023
 C    -5.763108    -0.121608    -0.722367
 H    -5.001581    -0.914365    -0.700175
 H    -5.840387     0.230006    -1.763967
 H    -6.724562    -0.579250    -0.453744
 C    -4.969150     3.189678     1.932233
 H    -4.784799     4.047119     2.583815
 C    -6.338869     1.343040     1.227783
 H    -7.248111     0.745428     1.336069
 C    -6.112481     2.410857     2.092048
 H    -6.836391     2.642298     2.877108
 H    -1.091699    -0.438774     1.649810
 H    -2.543815     0.551203     1.864370
 C    -2.904124    -1.343968     0.931606
 C    -2.758165    -2.130534    -0.216456
 H    -2.021555    -1.821047    -0.977132
 C    -3.869978    -1.707533     1.894798
 C    -4.073073    -0.901907     3.145407
 H    -4.399044     0.125438     2.913625
 H    -3.147662    -0.828835     3.739093
 H    -4.843661    -1.356831     3.782708
 C    -3.542499    -3.261904    -0.428786
 H    -3.407656    -3.850108    -1.339668
 C    -4.654135    -2.842702     1.662625
 H    -5.406746    -3.121326     2.405448
 C    -4.498881    -3.620128     0.516853
 H    -5.128344    -4.500163     0.364142
