 102
scf done:    -3601.442136
 C     1.256727    -2.650601    -2.440258
 H     0.854318    -2.943053    -3.425042
 H     2.069611    -1.946997    -2.680969
 C     1.834159    -3.881814    -1.747946
 H     1.068900    -4.663475    -1.615287
 H     2.662920    -4.334099    -2.323419
 H     2.227506    -3.650754    -0.745416
Ir    -0.298173    -1.715072    -1.289646
 C     2.915275    -1.006034    -0.115710
 C     1.873433     0.906757    -2.122728
 C     0.976827     0.993516     0.740508
 C    -2.466631     0.930263    -0.183780
 C    -3.728907    -1.496194    -0.905876
 C    -2.412605    -1.376638     1.635333
 P    -2.132032    -0.872352    -0.134129
 P     1.396210    -0.135546    -0.655350
 C    -1.323292    -3.072379    -2.011920
 O    -1.905606    -3.946353    -2.488044
 C     3.020747    -1.396311     1.225399
 H     2.254674    -1.103675     1.943529
 C     3.926544    -1.403200    -0.997893
 H     3.875700    -1.144605    -2.054623
 C     4.096434    -2.150348     1.677646
 H     4.170301    -2.442892     2.726393
 C     5.011834    -2.156928    -0.560370
 H     5.793158    -2.463156    -1.257359
 C     5.092722    -2.528980     0.778879
Cl     6.437931    -3.465157     1.332170
 H     2.223549     0.174165    -2.865774
 H     0.907653     1.262008    -2.509163
 C     2.854699     2.036246    -1.962503
 C     4.229505     1.795861    -2.066563
 H     4.582497     0.788496    -2.287532
 C     2.413660     3.354801    -1.722546
 C     0.955542     3.697680    -1.688664
 H     0.390439     3.050421    -1.007155
 H     0.499191     3.588388    -2.687233
 H     0.798160     4.734368    -1.362272
 C     5.164166     2.811900    -1.890853
 H     6.230718     2.589884    -1.971940
 C     3.363449     4.363495    -1.541995
 H     3.016499     5.379217    -1.335934
 C     4.728762     4.103411    -1.613222
 H     5.448277     4.911094    -1.460389
 H     0.001091     1.401074     0.440857
 H     0.718891     0.310953     1.569493
 C     1.882723     2.098104     1.227705
 C     3.276786     1.995417     1.194504
 H     3.741658     1.104705     0.775490
 C     1.298995     3.265316     1.767958
 C    -0.189837     3.430582     1.862703
 H    -0.654759     2.607562     2.424950
 H    -0.670895     3.444084     0.872033
 H    -0.449277     4.374137     2.362038
 C     4.093512     3.020534     1.660810
 H     5.178701     2.912945     1.604169
 C     2.135147     4.287786     2.229410
 H     1.678755     5.192125     2.641724
 C     3.521363     4.177583     2.178862
 H     4.149901     4.993898     2.542677
 C    -2.067265     1.600205    -1.347990
 H    -1.501107     1.043110    -2.102951
 C    -3.206848     1.634991     0.771335
 H    -3.581599     1.132515     1.663153
 C    -2.389532     2.937619    -1.555187
 H    -2.082534     3.457137    -2.463834
 C    -3.514846     2.980341     0.591622
 H    -4.085104     3.529008     1.342554
 C    -3.102085     3.625224    -0.572630
Cl    -3.464498     5.301558    -0.798186
 H    -3.628927    -1.206492    -1.963185
 H    -3.652921    -2.592286    -0.877634
 C    -5.025851    -1.006926    -0.338056
 C    -5.508290     0.250601    -0.727487
 H    -4.941736     0.828614    -1.461525
 C    -5.785971    -1.777285     0.570175
 C    -5.400378    -3.180797     0.946215
 H    -4.462074    -3.223898     1.518236
 H    -5.262212    -3.813763     0.055145
 H    -6.180945    -3.644884     1.564094
 C    -6.685168     0.776511    -0.204650
 H    -7.031848     1.761392    -0.525894
 C    -6.964811    -1.230015     1.090912
 H    -7.554050    -1.826023     1.793285
 C    -7.411881     0.036502     0.723736
 H    -8.337372     0.433356     1.147628
 H    -3.378201    -0.967361     1.970651
 H    -2.541548    -2.465402     1.551659
 C    -1.323522    -1.068018     2.618667
 C    -1.394422     0.093029     3.398470
 H    -2.247361     0.763486     3.277030
 C    -0.236266    -1.951341     2.801974
 C    -0.097569    -3.205567     1.994630
 H    -0.043934    -2.974557     0.908533
 H    -0.958612    -3.879882     2.134717
 H     0.810221    -3.757726     2.272020
 C    -0.406697     0.415606     4.324619
 H    -0.480949     1.336932     4.906408
 C     0.730526    -1.626290     3.762856
 H     1.559163    -2.321544     3.924033
 C     0.666107    -0.451947     4.508414
 H     1.446856    -0.221111     5.236467
