 116
scf done:    -3362.337410
 C    -1.346925    -2.529675    -1.787421
 H    -2.397538    -2.297795    -1.563595
 H    -1.279041    -2.530207    -2.888864
 C    -0.997148    -3.924613    -1.284120
 H    -1.707460    -4.689754    -1.652823
 H     0.008790    -4.233519    -1.609762
 H    -1.010929    -3.979895    -0.183942
Ir    -0.000775    -1.120075    -0.919280
 C     2.427180    -1.127231     1.616569
 C     3.458580    -0.338958    -0.880802
 C     1.764842     1.621742     0.541539
 C    -1.885097     0.418413     1.976298
 C    -2.023399     1.504532    -0.807659
 C    -3.403295    -0.974054     0.137955
 P    -1.796904    -0.043284     0.174696
 P     1.905751    -0.165011     0.127381
 C     0.855996    -1.151229    -2.535093
 O     1.250537    -0.980622    -3.614721
 C     1.614756    -2.226202     1.918751
 H     0.736249    -2.405128     1.286250
 C     3.604912    -0.905926     2.356456
 C     4.594259     0.172667     2.029550
 H     4.146231     1.024557     1.506050
 H     5.382725    -0.226977     1.370235
 H     5.083091     0.540627     2.944110
 C     1.911989    -3.078858     2.977234
 H     1.264982    -3.932306     3.194688
 C     3.880104    -1.767044     3.426870
 H     4.783312    -1.592943     4.019342
 C     3.048422    -2.837478     3.745198
 H     3.298091    -3.490964     4.585124
 C     4.347272     0.679333    -1.281463
 O     4.176993     1.899675    -0.741421
 C     4.913536     2.991116    -1.205313
 H     4.511862     3.871428    -0.686493
 H     5.989016     2.893465    -0.973635
 H     4.796006     3.131716    -2.294148
 C     3.738031    -1.649290    -1.328851
 O     2.947708    -2.610865    -0.831660
 C     2.987105    -3.906652    -1.354141
 H     2.208683    -4.471941    -0.827410
 H     3.964289    -4.388968    -1.177267
 H     2.765534    -3.912057    -2.434790
 C     4.778044    -1.917909    -2.225742
 H     4.955133    -2.931849    -2.581278
 C     5.392439     0.416723    -2.178037
 H     6.060924     1.216481    -2.493518
 C     5.587784    -0.874182    -2.651656
 H     6.400539    -1.072850    -3.354297
 C     1.529080     2.457991    -0.568616
 O     1.520636     1.830363    -1.751654
 C     1.208984     2.518718    -2.929667
 H     1.206382     1.763221    -3.725081
 H     0.214215     2.988172    -2.869381
 H     1.967884     3.287723    -3.160631
 C     1.790552     2.209851     1.816101
 O     1.973869     1.388646     2.865454
 C     2.119484     1.914748     4.150067
 H     2.339610     1.062817     4.806698
 H     1.194094     2.404474     4.499071
 H     2.956306     2.633394     4.204905
 C     1.656697     3.598267     1.966136
 H     1.697087     4.052946     2.954920
 C     1.378495     3.839817    -0.427870
 H     1.202983     4.470911    -1.297894
 C     1.464511     4.395257     0.844364
 H     1.369344     5.477496     0.966292
 C    -0.805171     0.000561     2.750816
 H     0.042788    -0.468386     2.258696
 C    -2.993775     1.021875     2.610020
 C    -4.216135     1.496162     1.881422
 H    -4.985351     0.706866     1.862207
 H    -4.017316     1.765560     0.837590
 H    -4.652856     2.367314     2.392700
 C    -0.789547     0.148156     4.135145
 H     0.069021    -0.213446     4.705193
 C    -2.953449     1.182648     4.000132
 H    -3.805750     1.659445     4.493824
 C    -1.874040     0.746567     4.766619
 H    -1.887559     0.874441     5.852293
 C    -1.853782     2.798938    -0.286265
 O    -1.490967     2.901536     1.002309
 C    -1.766761     4.070931     1.716740
 H    -1.576061     3.835492     2.771944
 H    -1.109906     4.903474     1.416921
 H    -2.821243     4.375039     1.596362
 C    -2.320375     1.386174    -2.184297
 O    -2.462336     0.140436    -2.647605
 C    -2.611837    -0.092764    -4.016438
 H    -2.647693    -1.181945    -4.137517
 H    -1.755394     0.302010    -4.589250
 H    -3.546432     0.346592    -4.409523
 C    -2.496092     2.515605    -2.990955
 H    -2.734019     2.408118    -4.048425
 C    -2.053687     3.935899    -1.086033
 H    -1.930815     4.930461    -0.659225
 C    -2.376343     3.783061    -2.425770
 H    -2.523526     4.667733    -3.050364
 C    -4.608510    -0.644100    -0.507369
 O    -4.685745     0.562285    -1.097547
 C    -5.793253     0.899417    -1.876856
 H    -5.568680     1.879610    -2.318343
 H    -5.961272     0.169376    -2.688113
 H    -6.715776     0.980244    -1.274793
 C    -3.359917    -2.189009     0.853871
 O    -2.197087    -2.444751     1.481712
 C    -2.115976    -3.479808     2.419195
 H    -1.137993    -3.376247     2.906114
 H    -2.178675    -4.472209     1.939890
 H    -2.906067    -3.392216     3.183918
 C    -4.449917    -3.062700     0.897270
 H    -4.389520    -4.002411     1.444602
 C    -5.701589    -1.523448    -0.484229
 H    -6.629200    -1.263482    -0.992392
 C    -5.609668    -2.721716     0.211891
 H    -6.465209    -3.401039     0.227978
