  90
scf done:    -2723.675205
 C    -1.448540     0.398977    -3.209962
 H    -1.769982    -0.497861    -3.766902
 H    -2.372544     0.797758    -2.757477
 C    -0.871351     1.426878    -4.175337
 H    -0.021186     1.021453    -4.747589
 H    -1.623893     1.772606    -4.908624
 H    -0.501614     2.323816    -3.650191
Ir    -0.027168    -0.054063    -1.690634
 C    -1.975118     1.405250     0.921119
 C    -3.416013    -0.466876    -0.716547
 C    -1.536036    -1.475947     1.104840
 C     2.065889    -1.443190     0.793480
 C     3.360706     0.558859    -0.848656
 C     1.578534     1.393965     1.115290
 P     1.729413     0.072870    -0.150462
 P    -1.726322    -0.099742    -0.093263
 C     0.987808    -0.919879    -2.978661
 O     1.513871    -1.647328    -3.706086
 C    -1.697839     1.481641     2.288171
 H    -1.379630     0.590379     2.830923
 C    -2.355131     2.571083     0.238412
 H    -2.547406     2.531488    -0.837729
 C    -1.805471     2.692105     2.969365
 H    -1.570294     2.771808     4.031670
 C    -2.488002     3.779832     0.910830
 H    -2.788163     4.693600     0.395113
 C    -2.204053     3.821832     2.271217
 F    -2.286774     4.989191     2.913099
 C    -3.533666    -1.507534    -1.645169
 H    -2.631179    -1.999336    -2.018085
 C    -4.565611     0.175360    -0.252420
 H    -4.479350     0.984881     0.476973
 C    -4.792099    -1.894831    -2.090634
 H    -4.885308    -2.708537    -2.813903
 C    -5.838461    -0.198422    -0.702812
 C    -7.062119     0.529272    -0.225739
 H    -7.936609    -0.136213    -0.182234
 H    -6.910022     0.962965     0.773203
 H    -7.316524     1.358590    -0.906895
 C    -5.934679    -1.245457    -1.624226
 H    -6.919721    -1.555860    -1.983956
 C    -2.460689    -1.708720     2.057385
 H    -3.343894    -1.067593     2.135017
 C    -0.340367    -2.362666     0.984170
 H    -0.126783    -2.548190    -0.081858
 C    -2.334276    -2.814207     3.002009
 H    -3.078788    -2.898400     3.797815
 C    -0.322832    -3.686764     1.810297
 C    -0.386674    -4.957510     0.978514
 H    -1.374007    -5.040955     0.499655
 H     0.379071    -4.944239     0.187592
 H    -0.221543    -5.852269     1.597771
 C    -1.351814    -3.723268     2.899374
 H    -1.290909    -4.557123     3.607411
 C     3.074451    -2.287694     0.488647
 H     3.841004    -1.986652    -0.229475
 C     0.953134    -1.888559     1.698151
 H     0.711951    -1.113206     2.440369
 C     3.179692    -3.626132     1.057029
 H     4.020086    -4.269000     0.789550
 C     1.085687    -3.283466     2.370012
 H     1.107871    -3.253169     3.472985
 C     2.248522    -4.076351     1.906674
 F     2.323865    -5.298300     2.437378
 C     3.457522     1.002329    -2.167426
 H     2.566369     1.011709    -2.798752
 C     4.498529     0.588299    -0.029295
 H     4.419747     0.270446     1.013843
 C     4.685604     1.443975    -2.662180
 H     4.758927     1.789961    -3.695940
 C     5.733791     1.019808    -0.512488
 C     6.950932     1.030498     0.366407
 H     7.421835     2.025772     0.384254
 H     6.702372     0.754873     1.400732
 H     7.710708     0.320174     0.002205
 C     5.810819     1.446452    -1.846934
 H     6.769111     1.792630    -2.245009
 C     2.001346     1.247416     2.438249
 H     2.393545     0.289575     2.788958
 C     1.120139     2.641124     0.672794
 H     0.789564     2.744757    -0.366252
 C     1.945345     2.338636     3.305793
 H     2.266506     2.223734     4.344198
 C     1.093636     3.750038     1.519951
 C     0.667302     5.100653     1.024313
 H     1.533985     5.777261     0.945182
 H     0.202574     5.034313     0.031241
 H    -0.052968     5.570507     1.710320
 C     1.500898     3.575319     2.850551
 H     1.471230     4.427338     3.535673
