  90
scf done:    -3444.288967
 C     1.790066    -1.883525    -2.111277
 H     1.671355    -2.126276    -3.179831
 H     2.720517    -1.296251    -2.056687
 C     1.959730    -3.167233    -1.307510
 H     1.070628    -3.815299    -1.369897
 H     2.820874    -3.761395    -1.666013
 H     2.144906    -2.965136    -0.238821
Ir     0.070960    -0.894487    -1.310479
 C     2.851457    -0.328627     0.707131
 C     2.681652     1.410345    -1.600489
 C     1.093131     2.041427     0.667243
 C    -2.355047     1.086914     0.541660
 C    -3.405030    -1.321728    -0.735148
 C    -1.719294    -1.557692     1.553511
 P    -1.865128    -0.590236    -0.010444
 P     1.631542     0.581597    -0.323216
 C    -0.877284    -1.495951    -2.781031
 O    -1.418115    -1.727186    -3.773480
 C     2.474153    -0.870318     1.944153
 H     1.484968    -0.667272     2.356254
 C     4.114929    -0.657113     0.198274
 H     4.434632    -0.254934    -0.765104
 C     3.333432    -1.692701     2.665004
 H     3.032925    -2.101663     3.631054
 C     4.979064    -1.490754     0.902267
 H     5.959497    -1.745193     0.496854
 C     4.585629    -2.003093     2.136443
Cl     5.655966    -3.036196     3.020210
 C     2.382731     1.139711    -2.941743
 H     1.568537     0.440337    -3.151829
 C     3.700412     2.340155    -1.285975
 C     4.062499     2.764390     0.108377
 H     4.038064     1.935685     0.826519
 H     3.359839     3.527861     0.478144
 H     5.070915     3.201013     0.123572
 C     3.077236     1.750743    -3.979274
 H     2.820941     1.521442    -5.015873
 C     4.394034     2.933617    -2.350038
 H     5.190660     3.645678    -2.117678
 C     4.095415     2.651077    -3.679124
 H     4.658396     3.138817    -4.478772
 C     1.391070     2.170845     2.028474
 H     1.944409     1.385428     2.542612
 C     0.413771     3.088707     0.002771
 C     0.069775     3.042886    -1.456298
 H    -0.217949     2.026540    -1.774018
 H     0.928877     3.343784    -2.075720
 H    -0.759451     3.728493    -1.674789
 C     1.040139     3.313496     2.741388
 H     1.290671     3.389146     3.802055
 C     0.084685     4.232975     0.738389
 H    -0.442735     5.045441     0.232134
 C     0.389919     4.356531     2.089532
 H     0.104184     5.261574     2.630553
 C    -2.781318     2.027105    -0.405915
 H    -2.832992     1.751222    -1.461798
 C    -2.216025     1.497133     1.873089
 H    -1.852346     0.793310     2.624606
 C    -3.124017     3.321175    -0.028952
 H    -3.463068     4.048485    -0.768488
 C    -2.534186     2.794108     2.259840
 H    -2.411072     3.112848     3.295489
 C    -2.997113     3.696790     1.306378
Cl    -3.348966     5.327432     1.773838
 C    -4.528489    -0.534066    -1.015862
 H    -4.529517     0.523483    -0.753497
 C    -3.446930    -2.706679    -1.027339
 C    -2.341208    -3.665363    -0.693076
 H    -2.386548    -3.963377     0.366627
 H    -1.345492    -3.226824    -0.860377
 H    -2.424241    -4.574759    -1.304073
 C    -5.670825    -1.071381    -1.600072
 H    -6.528692    -0.427099    -1.805722
 C    -4.606642    -3.222191    -1.620509
 H    -4.636065    -4.289611    -1.855367
 C    -5.708502    -2.426284    -1.912556
 H    -6.593784    -2.865657    -2.378188
 C    -0.494356    -2.207947     1.742900
 H     0.274401    -2.090583     0.971230
 C    -2.765112    -1.761779     2.483838
 C    -4.151983    -1.211525     2.320020
 H    -4.724282    -1.821489     1.602992
 H    -4.161668    -0.184111     1.936122
 H    -4.688031    -1.226875     3.279242
 C    -0.258121    -3.023622     2.844452
 H     0.706746    -3.523384     2.956698
 C    -2.500796    -2.573594     3.595452
 H    -3.297973    -2.728319     4.327716
 C    -1.270170    -3.197458     3.783754
 H    -1.110149    -3.830579     4.659967
