 100
scf done:    -2904.732537
 C    -0.778833    -2.830308     1.957025
 H    -0.402725    -3.007118     2.977236
 H    -1.829349    -2.520880     2.093428
 C    -0.728692    -4.118452     1.143165
 H     0.303638    -4.481493     1.011495
 H    -1.305305    -4.930913     1.622878
 H    -1.153931    -3.981783     0.134901
Ir     0.425359    -1.349313     0.959421
 C    -2.906000    -1.193488    -0.288734
 O    -2.382247     0.088297     1.935751
 O    -1.478092     1.106404    -0.233467
 C     2.219255     1.652352     0.099269
 O     3.139643    -0.628786    -0.805303
 O     0.908530     0.254525    -1.828333
 P     1.653159    -0.004302    -0.371547
 P    -1.565182    -0.349218     0.571847
 C     1.885285    -1.936876     2.001488
 O     2.719436    -2.186418     2.750013
 C    -2.546282    -1.940693    -1.415315
 H    -1.488831    -2.038844    -1.680710
 C    -4.254694    -1.064097     0.053652
 H    -4.533302    -0.476748     0.930217
 C    -3.527980    -2.540019    -2.197498
 H    -3.237830    -3.117729    -3.079189
 C    -5.227717    -1.672804    -0.731957
 H    -6.281578    -1.564460    -0.460965
 C    -4.884130    -2.417395    -1.868393
 C    -5.939672    -3.094555    -2.691351
 H    -6.886107    -2.535056    -2.673942
 H    -5.624267    -3.209813    -3.738206
 H    -6.149768    -4.103850    -2.299467
 C    -1.757265     0.565683     3.062487
 C    -0.569954     1.292848     2.997592
 H    -0.102984     1.496644     2.033137
 C    -2.368903     0.304015     4.285750
 H    -3.296246    -0.270477     4.305266
 C     0.047497     1.745413     4.168299
 C     1.370267     2.448625     4.085543
 H     2.191334     1.713787     4.038784
 H     1.446089     3.061804     3.175990
 H     1.546121     3.089482     4.961457
 C    -1.770050     0.776827     5.449981
 H    -2.242037     0.579218     6.415443
 C    -0.570727     1.485773     5.395857
 H    -0.104829     1.839002     6.319346
 C    -2.577871     1.899666    -0.459807
 C    -3.348354     1.693671    -1.600837
 H    -3.085831     0.875296    -2.274984
 C    -2.885178     2.918377     0.441276
 H    -2.269532     3.052395     1.332684
 C    -4.456991     2.505657    -1.864006
 C    -5.298257     2.251444    -3.080766
 H    -4.693752     2.291213    -4.000482
 H    -5.753410     1.248778    -3.037328
 H    -6.107889     2.988346    -3.174146
 C    -3.980802     3.734496     0.176802
 H    -4.234201     4.538296     0.872073
 C    -4.760474     3.530388    -0.961917
 H    -5.621993     4.175500    -1.152439
 C     3.491249     1.860386     0.639597
 H     4.198460     1.030573     0.691048
 C     1.322020     2.726399     0.029115
 H     0.323796     2.573621    -0.384241
 C     3.857528     3.123061     1.098138
 H     4.857230     3.272746     1.515218
 C     1.701719     3.983617     0.483698
 H     0.993410     4.813466     0.410601
 C     2.972541     4.205022     1.031054
 C     3.355705     5.554988     1.560499
 H     2.937395     6.363458     0.943147
 H     2.970494     5.695068     2.584630
 H     4.447031     5.679710     1.600215
 C     3.289911    -1.987257    -0.933896
 C     2.328836    -2.760062    -1.583997
 H     1.462328    -2.269041    -2.032532
 C     4.424251    -2.576093    -0.379545
 H     5.156343    -1.949276     0.132029
 C     2.469871    -4.149988    -1.660234
 C     1.394747    -4.974910    -2.304692
 H     0.501591    -5.012977    -1.659561
 H     1.083311    -4.545417    -3.269126
 H     1.726473    -6.007739    -2.479963
 C     4.577866    -3.955751    -0.473211
 H     5.460854    -4.429946    -0.038369
 C     3.607745    -4.738151    -1.099415
 H     3.734682    -5.822321    -1.152563
 C     1.240982     1.201984    -2.763134
 C     2.559692     1.434217    -3.144087
 H     3.359297     0.851811    -2.682925
 C     0.191871     1.926386    -3.330231
 H    -0.827744     1.730252    -2.996459
 C     2.853709     2.412285    -4.101970
 C     4.281017     2.671070    -4.488705
 H     4.862631     3.031742    -3.625199
 H     4.770641     1.751416    -4.845424
 H     4.353599     3.425547    -5.284288
 C     0.482152     2.889680    -4.289469
 H    -0.331161     3.464917    -4.738578
 C     1.801352     3.134858    -4.671717
 H     2.018004     3.899817    -5.421703
