 108
scf done:    -2461.269130
 C    -1.202795     1.276155    -2.939187
 H    -1.432715     0.591540    -3.774521
 H    -2.185322     1.579963    -2.544956
 C    -0.494490     2.513492    -3.483916
 H     0.446341     2.255772    -3.995965
 H    -1.121087     3.065714    -4.209359
 H    -0.229247     3.223996    -2.682708
Ir     0.005557     0.328483    -1.451155
 C    -1.902102     1.110576     1.568254
 C    -3.504023     0.342471    -0.691041
 C    -1.783080    -1.689534     0.695823
 C     1.889006    -1.825504     0.832583
 C     3.378923    -0.054920    -0.820249
 C     1.828501     1.151044     1.440447
 P     1.737061    -0.125515     0.092803
 P    -1.816433     0.056748     0.051805
 C     1.025649    -0.238514    -2.872288
 O     1.567281    -0.753876    -3.757930
 C    -1.793571     0.560634     2.853028
 H    -1.666711    -0.514414     2.974336
 C    -2.055897     2.511086     1.441976
 C    -2.129207     3.204080     0.112524
 H    -3.167498     3.266557    -0.252549
 H    -1.541116     2.679912    -0.657144
 H    -1.749720     4.232421     0.191205
 C    -1.860080     1.350267     3.998312
 H    -1.771896     0.886558     4.983569
 C    -2.142648     3.285191     2.605256
 H    -2.265561     4.366954     2.503251
 C    -2.052051     2.722600     3.874535
 H    -2.117820     3.356953     4.761478
 H    -3.364089     1.311939    -1.195970
 C    -4.689261     0.519853     0.259369
 H    -4.452974     1.253197     1.045554
 H    -4.912161    -0.426720     0.775413
 C    -5.922779     0.965805    -0.523342
 H    -6.783130     1.070438     0.157740
 H    -5.737612     1.970918    -0.944907
 C    -6.254031     0.000665    -1.656844
 H    -7.123126     0.364329    -2.228854
 H    -6.552695    -0.972101    -1.224785
 C    -5.058237    -0.210976    -2.579209
 H    -4.824064     0.732469    -3.104265
 H    -5.300160    -0.948776    -3.361248
 C    -3.826606    -0.660460    -1.799945
 H    -4.025833    -1.651192    -1.357543
 H    -2.959673    -0.776708    -2.468189
 H    -0.930774    -1.665223     1.400588
 C    -1.395011    -2.697481    -0.392825
 H    -0.506713    -2.328074    -0.928522
 H    -2.200436    -2.761414    -1.141797
 C    -1.150977    -4.073927     0.213251
 H    -0.888718    -4.790359    -0.581835
 H    -0.274796    -4.019205     0.879073
 C    -2.351540    -4.571605     1.008590
 H    -2.128136    -5.544364     1.476451
 H    -3.202384    -4.743342     0.324169
 C    -2.765744    -3.555145     2.065886
 H    -1.962982    -3.465110     2.821071
 H    -3.664087    -3.897854     2.605039
 C    -3.023930    -2.185725     1.443220
 H    -3.856745    -2.277167     0.726776
 H    -3.356763    -1.470571     2.209517
 C     2.168143    -2.792376    -0.153098
 H     2.206727    -2.486667    -1.201607
 C     1.744264    -2.261748     2.169398
 C     1.331490    -1.390990     3.323627
 H     0.450075    -0.781317     3.090347
 H     2.126075    -0.699880     3.637758
 H     1.079892    -2.014143     4.192587
 C     2.395961    -4.126801     0.152918
 H     2.621768    -4.837147    -0.645363
 C     1.974889    -3.618303     2.455926
 H     1.871785    -3.949679     3.492875
 C     2.319049    -4.543518     1.479374
 H     2.496037    -5.587066     1.749104
 H     3.178291    -0.739967    -1.661640
 C     4.640470    -0.584511    -0.134801
 H     4.451997    -1.562733     0.331761
 H     4.954105     0.095035     0.671833
 C     5.772384    -0.698489    -1.154480
 H     6.687091    -1.066812    -0.661767
 H     5.499673    -1.457273    -1.910193
 C     6.041887     0.632002    -1.849868
 H     6.830033     0.514999    -2.611461
 H     6.433197     1.351813    -1.107525
 C     4.775381     1.205036    -2.477098
 H     4.443977     0.555220    -3.306545
 H     4.978392     2.194170    -2.918838
 C     3.645418     1.310443    -1.457384
 H     3.932565     2.035424    -0.676417
 H     2.727249     1.694868    -1.930643
 H     1.024392     0.857930     2.134452
 C     1.433553     2.534591     0.909742
 H     0.489931     2.461021     0.347957
 H     2.186951     2.891066     0.190001
 C     1.311860     3.530686     2.057814
 H     1.043773     4.525259     1.664767
 H     0.479151     3.219398     2.709499
 C     2.589879     3.609736     2.884579
 H     2.455987     4.300287     3.733127
 H     3.403118     4.031148     2.265992
 C     3.009500     2.230410     3.380211
 H     2.253915     1.851172     4.092626
 H     3.960607     2.290388     3.934105
 C     3.141457     1.252705     2.216559
 H     3.925147     1.625133     1.537329
 H     3.485352     0.266679     2.563248
