  84
scf done:    -4284.672832
 C    -1.082045     1.381130    -3.094177
 H    -1.561856     0.779380    -3.884942
 H    -1.911554     1.901792    -2.587011
 C    -0.150817     2.408706    -3.726340
 H     0.627941     1.933839    -4.344678
 H    -0.699354     3.114552    -4.377339
 H     0.371529     3.016755    -2.968200
Ir     0.016811     0.192881    -1.711552
 C    -1.533573     1.737288     1.124226
 C    -3.391056     0.666627    -0.802250
 C    -2.021629    -1.134241     0.791467
 C     1.487284    -1.918594     0.895457
 C     3.345825    -0.640862    -0.876047
 C     2.021402     0.949530     0.976652
 P     1.655194    -0.440792    -0.168455
 P    -1.698067     0.417350    -0.128265
 C     0.810225    -0.651149    -3.160199
 O     1.163127    -1.316845    -4.034372
 C    -1.061477     1.505663     2.420898
 H    -0.880419     0.484721     2.761063
 C    -1.727491     3.062773     0.713049
 H    -2.069868     3.273831    -0.304124
 C    -0.814679     2.566617     3.285987
 H    -0.441334     2.360027     4.292665
 C    -1.488064     4.118050     1.587620
 H    -1.657806     5.143712     1.248671
 C    -1.027573     3.892280     2.890334
 C    -0.733539     5.028359     3.823210
 H    -1.154710     5.974019     3.454650
 H    -1.141792     4.838256     4.827290
 H     0.354619     5.163372     3.934343
 C    -4.378817     1.408339    -0.148148
 H    -4.142781     1.952541     0.768936
 C    -3.724590    -0.030856    -1.969054
 H    -2.951772    -0.609103    -2.483086
 C    -5.674872     1.466975    -0.655139
 H    -6.447332     2.049374    -0.150465
 C    -5.015589     0.013960    -2.481204
 H    -5.275924    -0.525822    -3.392872
 C    -5.985270     0.768396    -1.820087
Cl    -7.593794     0.838178    -2.455001
 C    -2.805440    -1.171765     1.950286
 H    -3.186178    -0.246884     2.389808
 C    -1.591092    -2.334657     0.218488
 H    -0.988380    -2.291070    -0.694219
 C    -3.120637    -2.385737     2.551648
 H    -3.723666    -2.422599     3.460184
 C    -1.917362    -3.556253     0.797851
 H    -1.579407    -4.492996     0.353751
 C    -2.671313    -3.570217     1.968351
Cl    -3.071877    -5.085118     2.712201
 C     1.705448    -3.178899     0.323876
 H     2.063701    -3.254904    -0.706773
 C     0.996517    -1.861398     2.204856
 H     0.796005    -0.894694     2.669798
 C     1.474435    -4.339774     1.055050
 H     1.665093    -5.311609     0.591339
 C     0.757961    -3.026337     2.926682
 H     0.371377    -2.953728     3.946914
 C     0.997278    -4.288159     2.370247
 C     0.713295    -5.537907     3.148153
 H     1.083276    -5.460027     4.181548
 H    -0.372542    -5.718424     3.203320
 H     1.177450    -6.418436     2.682439
 C     3.686991     0.120499    -1.999170
 H     2.926181     0.747072    -2.472941
 C     4.333305    -1.425690    -0.269027
 H     4.096000    -2.020475     0.615668
 C     4.976958     0.092658    -2.519009
 H     5.239016     0.684481    -3.397257
 C     5.625691    -1.469129    -0.783315
 H     6.393194    -2.088228    -0.316078
 C     5.940382    -0.708636    -1.908695
Cl     7.545841    -0.760035    -2.552754
 C     2.777865     0.806394     2.145262
 H     3.132196    -0.179486     2.454663
 C     1.621790     2.230695     0.581586
 H     1.043720     2.344971    -0.341793
 C     3.095206     1.913532     2.925770
 H     3.677335     1.805688     3.842320
 C     1.946565     3.349035     1.341785
 H     1.629285     4.345741     1.033811
 C     2.673117     3.178264     2.517286
Cl     3.070342     4.559672     3.488411
