  56
scf done:    -1680.433309
 C    -3.391963    -1.057774    -1.065449
 H    -3.993535    -0.369952    -1.685454
 H    -2.945161    -1.759707    -1.794342
 C    -4.323702    -1.834492    -0.138330
 H    -4.884423    -1.160274     0.528539
 H    -5.069179    -2.432709    -0.695463
 H    -3.776485    -2.530415     0.518397
Ir    -1.902403     0.120666    -0.058212
 C     1.260459    -1.662134     0.061149
 C    -1.007719    -3.283000    -0.334783
 C    -0.075352    -1.662337    -2.498132
 C     1.302174     1.601845    -0.001329
 C    -0.803455     3.313318     0.770411
 C     0.125667     1.402983     2.631960
 P    -0.316520     1.540842     0.856423
 P    -0.401686    -1.591277    -0.700556
 C    -3.286844     1.223464     0.489562
 O    -4.165102     1.871215     0.864570
 C     2.451878    -1.623620    -0.667238
 H     2.434386    -1.541428    -1.755025
 C     1.334926    -1.758612     1.456099
 H     0.412475    -1.788415     2.044295
 C     3.680944    -1.666131    -0.014658
 H     4.600541    -1.622112    -0.605044
 C     2.565908    -1.806347     2.101909
 H     2.599635    -1.883681     3.192485
 C     3.763381    -1.751250     1.378325
 C     5.092175    -1.740394     2.074168
 H     5.859711    -2.267415     1.488705
 H     5.447538    -0.705894     2.219322
 H     5.034679    -2.209016     3.066951
 H    -1.152341    -3.386346     0.749173
 H    -1.975958    -3.439398    -0.828308
 H    -0.280129    -4.032241    -0.679179
 H     0.513037    -2.550244    -2.773358
 H    -1.045909    -1.689743    -3.012599
 H     0.454049    -0.752202    -2.810787
 C     1.284890     1.646018    -1.401811
 H     0.320558     1.634395    -1.920904
 C     2.538539     1.609625     0.648531
 H     2.591709     1.567676     1.737961
 C     2.470565     1.692639    -2.127488
 H     2.433098     1.731641    -3.220198
 C     3.722749     1.650139    -0.083907
 H     4.679882     1.645013     0.445803
 C     3.713498     1.686841    -1.481416
 C     4.993988     1.676951    -2.263316
 H     5.325455     0.642864    -2.459981
 H     4.877850     2.172151    -3.238165
 H     5.805421     2.179516    -1.717105
 H    -1.012730     3.572576    -0.276812
 H    -1.725914     3.462776     1.351049
 H    -0.008069     3.967031     1.158214
 H     0.761741     2.234823     2.971180
 H    -0.813968     1.411001     3.202650
 H     0.634766     0.448877     2.820186
