  94
scf done:    -3744.955956
 C    -1.151401     0.844993    -3.411986
 H    -0.768894     0.605537    -4.416971
 H    -2.178364     0.447245    -3.383580
 C    -1.176846     2.357664    -3.234123
 H    -0.163724     2.793632    -3.247500
 H    -1.751250     2.857736    -4.035869
 H    -1.652679     2.654058    -2.284095
Ir     0.088794     0.018690    -1.897603
 C    -1.422091     1.373454     1.115279
 C    -3.320691     0.821001    -0.930046
 C    -2.104832    -1.381176     0.334754
 C     1.484996    -1.566577     1.018189
 C     3.463044    -0.683037    -0.845375
 C     2.091859     1.280601     0.591073
 P     1.760316    -0.299020    -0.276617
 P    -1.675860     0.264146    -0.334755
 C     0.882854    -0.997907    -3.211961
 O     1.233838    -1.768737    -3.999520
 C    -1.676304     1.036475     2.448903
 H    -2.071943     0.051623     2.699955
 C    -0.896354     2.642623     0.838684
 H    -0.667235     2.917277    -0.193846
 C    -1.397219     1.929984     3.480611
 H    -1.578317     1.656056     4.521244
 C    -0.634030     3.555559     1.854375
 H    -0.213618     4.536578     1.630732
 C    -0.876318     3.184493     3.174563
Cl    -0.503902     4.290012     4.458065
 C    -3.885145     2.065680    -0.621377
 H    -3.364548     2.754940     0.046379
 C    -4.030891    -0.036194    -1.776414
 H    -3.615617    -1.016861    -2.023896
 C    -5.114097     2.440197    -1.145287
 H    -5.560730     3.406917    -0.905790
 C    -5.265511     0.326498    -2.307936
 H    -5.787011    -0.370915    -2.963590
 C    -5.814643     1.576729    -1.997154
 O    -6.997486     2.023489    -2.460175
 C    -7.734231     1.209536    -3.329165
 H    -8.023357     0.255682    -2.853442
 H    -8.643937     1.766585    -3.586673
 H    -7.176766     0.988443    -4.256355
 C    -1.398184    -2.507976    -0.108709
 H    -0.609945    -2.360068    -0.853524
 C    -3.152848    -1.568177     1.242027
 H    -3.778288    -0.722190     1.538561
 C    -1.689028    -3.769147     0.381550
 H    -1.137032    -4.649051     0.047895
 C    -3.432499    -2.827149     1.770289
 H    -4.244125    -2.936664     2.490063
 C    -2.685872    -3.937400     1.351058
 O    -2.867424    -5.188569     1.806084
 C    -3.714196    -5.395651     2.901488
 H    -4.764799    -5.149977     2.666376
 H    -3.649669    -6.462191     3.151097
 H    -3.392300    -4.803830     3.776096
 C     1.869698    -2.894028     0.781278
 H     2.477386    -3.136835    -0.094036
 C     0.691467    -1.296887     2.139114
 H     0.360513    -0.278200     2.337952
 C     1.472085    -3.919452     1.633420
 H     1.764799    -4.952399     1.438465
 C     0.282132    -2.312324     2.996655
 H    -0.352183    -2.093651     3.857115
 C     0.666495    -3.623500     2.732178
Cl     0.109361    -4.901166     3.761509
 C     4.450163    -1.114356     0.058071
 H     4.189300    -1.303243     1.102449
 C     3.843340    -0.422489    -2.160679
 H     3.099605    -0.055332    -2.870488
 C     5.756872    -1.309244    -0.353409
 H     6.527039    -1.652071     0.340084
 C     5.158126    -0.607426    -2.589074
 H     5.411315    -0.397465    -3.628239
 C     6.123833    -1.060881    -1.685916
 O     7.414202    -1.281116    -1.996806
 C     7.841433    -1.049107    -3.310529
 H     7.707107     0.006591    -3.604983
 H     8.910882    -1.292744    -3.341087
 H     7.307893    -1.689909    -4.034299
 C     2.097977     2.427354    -0.222014
 H     1.851746     2.325145    -1.284691
 C     2.414708     1.425448     1.939634
 H     2.456057     0.552298     2.593701
 C     2.393098     3.673675     0.301480
 H     2.396023     4.568381    -0.324096
 C     2.685482     2.680334     2.487039
 H     2.902245     2.759630     3.552247
 C     2.668267     3.815356     1.669995
 O     2.887187     5.069649     2.104981
 C     3.136851     5.277758     3.469662
 H     4.055278     4.761586     3.799977
 H     3.271796     6.358680     3.601338
 H     2.288733     4.942871     4.090775
