  90
scf done:    -3120.525318
 C    -2.025854     0.297947    -3.015322
 H    -2.004457    -0.424925    -3.849083
 H    -2.955288     0.054402    -2.469143
 C    -2.146391     1.709011    -3.583640
 H    -1.277287     1.970028    -4.207884
 H    -3.048973     1.835559    -4.210211
 H    -2.199274     2.474045    -2.789551
Ir    -0.257236     0.140817    -1.804593
 C    -1.101655    -0.273804     1.698955
 C    -2.993727     1.324918     0.120794
 C    -2.833549    -1.574441    -0.194156
 C     2.496989    -1.029114     0.187752
 C     3.029141     1.177976    -1.593824
 C     1.554445     1.582398     0.888370
 P     1.670840     0.426569    -0.550338
 P    -1.760675    -0.063954     0.000876
 C     0.672901    -0.258732    -3.355317
 O     1.212847    -0.635482    -4.303812
 C    -0.219750    -1.343541     1.919153
 H     0.025246    -2.022281     1.104110
 C    -1.353338     0.605327     2.758867
 H    -2.004332     1.469271     2.625144
 C     0.382146    -1.544088     3.156553
 H     1.075496    -2.370432     3.321076
 C    -0.750646     0.424602     4.002064
 H    -0.937026     1.110109     4.830817
 C     0.109548    -0.651463     4.186012
 F     0.688082    -0.824123     5.370480
 H    -2.561534     2.076004     0.798932
 H    -2.977153     1.786421    -0.875377
 C    -4.399023     0.946882     0.485873
 C    -5.369330     0.847770    -0.519643
 H    -5.094350     1.079400    -1.552348
 C    -4.779788     0.643164     1.799859
 H    -4.048018     0.699229     2.607684
 C    -6.675985     0.461597    -0.234351
 H    -7.434178     0.386568    -1.015805
 C    -6.082061     0.255812     2.103727
 H    -6.384085     0.020617     3.125845
 C    -7.016924     0.168166     1.079527
 F    -8.263172    -0.203250     1.364366
 H    -3.506597    -1.619272     0.673768
 H    -3.452922    -1.377368    -1.081965
 C    -2.050349    -2.842404    -0.352051
 C    -1.379715    -3.121677    -1.551333
 H    -1.468385    -2.425398    -2.387695
 C    -1.920029    -3.743748     0.709790
 H    -2.442304    -3.546858     1.649414
 C    -0.573283    -4.248592    -1.676179
 H    -0.039903    -4.467819    -2.603085
 C    -1.109099    -4.873032     0.604895
 H    -0.987415    -5.571561     1.434405
 C    -0.434254    -5.099775    -0.586604
 F     0.379833    -6.154359    -0.686162
 C     2.170084    -2.284640    -0.341185
 H     1.436854    -2.338827    -1.151352
 C     3.395710    -0.957956     1.260181
 H     3.670094     0.005297     1.693892
 C     2.715197    -3.451661     0.186474
 H     2.444945    -4.436544    -0.199399
 C     3.951912    -2.115751     1.796957
 H     4.650762    -2.079743     2.634624
 C     3.602244    -3.347352     1.252508
 F     4.123978    -4.453673     1.773922
 H     3.195747     0.447229    -2.399307
 H     2.578789     2.067204    -2.061078
 C     4.301035     1.513380    -0.886915
 C     4.487439     2.771531    -0.296958
 H     3.711127     3.534969    -0.401319
 C     5.324116     0.564084    -0.757855
 H     5.202338    -0.421023    -1.214305
 C     5.647621     3.074147     0.411487
 H     5.800957     4.052984     0.869288
 C     6.491316     0.850606    -0.056147
 H     7.292453     0.116404     0.045544
 C     6.635484     2.103731     0.526826
 F     7.748026     2.384061     1.203309
 H     1.258375     0.965108     1.749990
 H     2.566129     1.959909     1.115509
 C     0.591369     2.733363     0.745376
 C     0.088007     3.172978    -0.485879
 H     0.357848     2.646343    -1.409298
 C     0.172578     3.406986     1.901784
 H     0.550455     3.081672     2.874441
 C    -0.808636     4.238278    -0.564868
 H    -1.206447     4.573556    -1.524362
 C    -0.722227     4.471296     1.842818
 H    -1.050784     4.995250     2.742330
 C    -1.205498     4.874539     0.602228
 F    -2.064969     5.889560     0.537661
