 110
scf done:    -3482.080891
 C    -1.155661    -2.349056    -2.039520
 H    -1.671722    -3.195072    -1.549490
 H    -1.963834    -1.660132    -2.340969
 C    -0.464363    -2.827536    -3.312028
 H     0.275285    -3.619638    -3.113297
 H    -1.185180    -3.234670    -4.046279
 H     0.077657    -2.006889    -3.811395
Ir     0.123714    -1.358478    -0.638969
 C    -2.024097     1.272723    -1.248513
 C    -3.359285    -1.215615    -0.238432
 C    -2.142306     0.625435     1.563011
 C     1.514335     1.346859     1.480679
 C     3.374422    -0.726307     0.894330
 C     2.355275     0.887474    -1.310581
 P     1.812121     0.019679     0.241585
 P    -1.872508    -0.147003    -0.085285
 C     1.321691    -2.726187    -0.886003
 O     2.012483    -3.656752    -0.941207
 C    -1.150868     1.266024    -2.343257
 H    -0.456988     0.424439    -2.463389
 C    -2.878569     2.368068    -1.068521
 H    -3.583633     2.379124    -0.237779
 C    -1.130168     2.321314    -3.251758
 H    -0.439848     2.329028    -4.096739
 C    -2.857955     3.434842    -1.961619
 H    -3.510885     4.300480    -1.833384
 C    -1.982892     3.395176    -3.042386
 F    -1.942948     4.433712    -3.881844
 C    -3.430415    -2.261850     0.697831
 O    -2.437159    -2.267004     1.595070
 C    -2.331017    -3.273584     2.553281
 H    -1.446519    -3.022366     3.150639
 H    -3.214543    -3.304562     3.215596
 H    -2.194499    -4.265412     2.088238
 C    -4.345976    -1.139162    -1.232394
 O    -4.215254    -0.158287    -2.140040
 C    -5.123067    -0.050299    -3.196809
 H    -4.791214     0.805017    -3.799087
 H    -6.150445     0.141080    -2.839725
 H    -5.125842    -0.955960    -3.827782
 C    -5.399316    -2.065500    -1.259834
 H    -6.168462    -2.006290    -2.028802
 C    -4.470947    -3.197721     0.673426
 H    -4.512461    -4.007187     1.401569
 C    -5.448620    -3.079480    -0.309232
 H    -6.266654    -3.803154    -0.342300
 C    -3.334395     1.085366     2.000111
 O    -4.440086     1.027793     1.205262
 C    -5.564866     0.338111     1.696675
 H    -6.340038     0.409314     0.923495
 H    -5.333884    -0.726106     1.867358
 H    -5.952725     0.781168     2.630188
 C    -0.906910     0.803818     2.411401
 O    -0.502923    -0.467995     2.814761
 C     0.424965    -0.579616     3.856531
 H     0.809975    -1.605473     3.823117
 H    -0.039651    -0.409940     4.846310
 H     1.285175     0.098511     3.740838
 C    -1.053979     1.883888     3.519292
 H    -0.431200     1.615893     4.384070
 C    -3.487394     1.814826     3.262966
 H    -4.500102     2.080485     3.574334
 C    -2.425161     2.220111     3.973201
 H    -2.555667     2.807750     4.886728
 C     2.481923     1.966535     2.183641
 H     3.527957     1.697216     2.035174
 C     0.083639     1.742132     1.639485
 H    -0.303939     1.955816     0.633057
 C     2.191293     3.050271     3.117583
 H     3.004108     3.530421     3.666082
 C    -0.246084     2.886010     2.635624
 H    -0.890103     3.671625     2.209494
 C     0.936697     3.486752     3.293174
 F     0.657898     4.486352     4.135454
 C     4.651351    -0.191796     0.633859
 O     4.686349     1.036708     0.081101
 C     5.847313     1.490422    -0.553602
 H     5.568982     2.410027    -1.084611
 H     6.651625     1.720200     0.167426
 H     6.220070     0.754559    -1.286274
 C     3.309326    -1.957886     1.575025
 O     2.083615    -2.401056     1.894776
 C     1.892347    -3.739004     2.260987
 H     0.805999    -3.893952     2.279401
 H     2.309543    -3.955368     3.260769
 H     2.333901    -4.423263     1.518818
 C     4.471878    -2.670362     1.899836
 H     4.406851    -3.631238     2.408633
 C     5.816800    -0.897587     0.950883
 H     6.797529    -0.477480     0.729728
 C     5.711249    -2.136728     1.573053
 H     6.618667    -2.691034     1.824868
 C     3.082391     0.152692    -2.271179
 O     3.428348    -1.096072    -1.917344
 C     4.023474    -1.958851    -2.843793
 H     4.111686    -2.928712    -2.339961
 H     3.396158    -2.079271    -3.743395
 H     5.026617    -1.607498    -3.143661
 C     1.996133     2.205442    -1.639440
 O     1.248779     2.878715    -0.742129
 C     0.944521     4.227623    -0.951364
 H     0.360021     4.550640    -0.080233
 H     0.337201     4.377888    -1.859187
 H     1.857861     4.844014    -1.017710
 C     2.375949     2.780575    -2.861391
 H     2.092309     3.804347    -3.100824
 C     3.446863     0.711827    -3.500559
 H     4.006234     0.127508    -4.229951
 C     3.093957     2.027432    -3.780555
 H     3.379787     2.472114    -4.736769
