  96
scf done:    -2603.927755
 C     1.235380    -2.872852    -1.685461
 H     1.701268    -2.757256    -2.679928
 H     2.084678    -2.983502    -0.992087
 C     0.421022    -4.164590    -1.672841
 H    -0.393325    -4.146656    -2.414874
 H     1.045776    -5.048940    -1.897013
 H    -0.051017    -4.349938    -0.693103
Ir     0.029768    -1.167276    -1.211269
 C     0.735737    -0.402565     2.174082
 C     3.091157    -1.399671     0.801516
 C     2.107025     1.264329     0.183394
 C    -1.161386     2.134505    -0.539262
 C    -3.092603     0.390760    -1.711527
 C    -2.465790    -0.064591     1.050263
 P    -1.634434     0.346476    -0.546690
 P     1.514584    -0.457763     0.508010
 C    -0.711944    -1.394226    -2.889802
 O    -1.078681    -1.446951    -3.983293
 C     0.488443     0.818169     2.818806
 H     0.851947     1.751798     2.387854
 C     0.230470    -1.596700     2.737387
 C     0.452222    -2.935331     2.100073
 H     1.431499    -3.353368     2.383937
 H     0.425179    -2.866270     1.000139
 H    -0.321907    -3.650092     2.409055
 C    -0.243068     0.874501     4.002886
 H    -0.421788     1.838436     4.484742
 C    -0.511744    -1.515194     3.921003
 H    -0.925114    -2.434759     4.343096
 C    -0.751799    -0.298899     4.553560
 H    -1.341587    -0.268400     5.472540
 H     2.835123    -2.467295     0.721350
 H     3.405053    -1.217485     1.838863
 C     4.209544    -1.051084    -0.142819
 C     5.503220    -0.868622     0.358716
 H     5.680946    -0.971312     1.432261
 C     3.994683    -0.888836    -1.517388
 H     2.988880    -1.020061    -1.926049
 C     6.556004    -0.527551    -0.485156
 H     7.555724    -0.379374    -0.070003
 C     5.047655    -0.542518    -2.361927
 H     4.859617    -0.415874    -3.431017
 C     6.331347    -0.359508    -1.850653
 H     7.154838    -0.085226    -2.514455
 H     1.268256     1.930662     0.437317
 H     2.177997     1.317022    -0.910960
 C     3.402662     1.728982     0.789908
 C     3.717285     1.578743     2.146747
 H     3.009880     1.096040     2.823145
 C     4.347127     2.342728    -0.042432
 H     4.127103     2.448648    -1.107576
 C     4.939915     2.020664     2.649170
 H     5.165612     1.887103     3.710136
 C     5.567573     2.786307     0.456730
 H     6.291437     3.249076    -0.218126
 C     5.871381     2.624745     1.807335
 H     6.831727     2.965206     2.201667
 C    -0.362233     2.426342    -1.659253
 H    -0.083008     1.598016    -2.319944
 C    -1.502594     3.178517     0.349058
 C    -2.407355     3.029976     1.538608
 H    -2.045460     2.275483     2.249751
 H    -3.424535     2.746356     1.226568
 H    -2.484475     3.985414     2.074692
 C     0.105993     3.708129    -1.918974
 H     0.721832     3.898468    -2.800815
 C    -0.986401     4.457229     0.085937
 H    -1.232727     5.266262     0.778859
 C    -0.198098     4.732145    -1.025924
 H     0.176392     5.744972    -1.192151
 H    -3.462447    -0.645484    -1.755973
 H    -2.678686     0.634115    -2.701062
 C    -4.163378     1.352000    -1.305584
 C    -4.090623     2.702351    -1.675104
 H    -3.271447     3.039979    -2.314531
 C    -5.228092     0.939283    -0.492373
 H    -5.307209    -0.113612    -0.208117
 C    -5.040011     3.616718    -1.225265
 H    -4.962401     4.665631    -1.521372
 C    -6.178390     1.853343    -0.041537
 H    -7.001033     1.511065     0.591276
 C    -6.083527     3.197738    -0.400254
 H    -6.827414     3.915520    -0.046457
 H    -3.249984     0.675820     1.242282
 H    -1.709690     0.057367     1.839257
 C    -3.076171    -1.440706     1.148406
 C    -4.185465    -1.612635     1.989559
 H    -4.594601    -0.745812     2.516720
 C    -2.576521    -2.562968     0.479895
 H    -1.712209    -2.443322    -0.193101
 C    -4.767348    -2.865254     2.166854
 H    -5.629637    -2.973335     2.829584
 C    -3.159776    -3.817588     0.651031
 H    -2.749928    -4.674917     0.110972
 C    -4.255029    -3.976540     1.497079
 H    -4.713081    -4.959615     1.630058
