  90
scf done:    -2723.745121
 C    -1.207848     1.393961    -3.004357
 H    -1.604783     0.785169    -3.834733
 H    -2.099505     1.783320    -2.484759
 C    -0.398939     2.557973    -3.564608
 H     0.440285     2.212781    -4.189898
 H    -1.018843     3.227593    -4.189874
 H     0.036507     3.182416    -2.765912
Ir     0.009834     0.267741    -1.670697
 C    -1.737999     1.478312     1.209046
 C    -3.442998     0.282293    -0.779829
 C    -1.856698    -1.418321     0.742867
 C     1.695941    -1.778082     0.857890
 C     3.413270    -0.213991    -0.816211
 C     1.862677     1.134180     1.075137
 P     1.703107    -0.237192    -0.133857
 P    -1.737504     0.200585    -0.102187
 C     0.899519    -0.412712    -3.145644
 O     1.326049    -0.995972    -4.046908
 C    -1.224582     1.250619     2.490605
 H    -0.917037     0.245980     2.782545
 C    -2.101622     2.785763     0.853506
 H    -2.480412     2.990541    -0.151507
 C    -1.089749     2.290789     3.405533
 H    -0.678175     2.124205     4.402093
 C    -1.980089     3.833812     1.759832
 H    -2.261306     4.854715     1.495469
 C    -1.471381     3.569218     3.025747
 F    -1.326748     4.575496     3.891094
 C    -3.685124    -0.371908    -1.993663
 H    -2.844566    -0.814890    -2.534940
 C    -4.520757     0.842518    -0.090440
 H    -4.362038     1.343476     0.867215
 C    -4.973306    -0.451838    -2.506582
 H    -5.140808    -0.966398    -3.456938
 C    -5.809553     0.764633    -0.615748
 H    -6.640911     1.211880    -0.063659
 C    -6.059810     0.120529    -1.830924
 C    -7.442343     0.056518    -2.409957
 H    -8.205441     0.326392    -1.666459
 H    -7.545117     0.751253    -3.259964
 H    -7.672305    -0.951260    -2.787726
 C    -2.585477    -1.618147     1.918905
 H    -3.067337    -0.775199     2.420166
 C    -1.308437    -2.528328     0.090064
 H    -0.749362    -2.363651    -0.836754
 C    -2.710441    -2.896417     2.458251
 H    -3.267431    -3.034599     3.389161
 C    -1.464330    -3.803054     0.618569
 H    -1.026233    -4.657106     0.095448
 C    -2.147979    -4.009286     1.823358
 C    -2.244150    -5.383327     2.416685
 H    -2.628596    -6.108960     1.683321
 H    -1.248943    -5.737127     2.730678
 H    -2.904554    -5.402245     3.294778
 C     2.083094    -2.971661     0.231352
 H     2.478105    -2.946374    -0.787831
 C     1.164512    -1.844914     2.150855
 H     0.838296    -0.933129     2.652137
 C     1.969058    -4.194354     0.884437
 H     2.270117    -5.128533     0.406949
 C     1.036275    -3.061585     2.814588
 H     0.611857    -3.122310     3.817857
 C     1.443203    -4.220783     2.170441
 F     1.306408    -5.394250     2.793474
 C     3.679527     0.599863    -1.922008
 H     2.856817     1.138906    -2.399524
 C     4.482600    -0.874165    -0.200404
 H     4.309194    -1.500066     0.677918
 C     4.975537     0.732983    -2.409514
 H     5.157831     1.375172    -3.275617
 C     5.775619    -0.743266    -0.698672
 H     6.595579    -1.273183    -0.205616
 C     6.046858     0.057432    -1.814137
 C     7.435717     0.168429    -2.370240
 H     7.593825    -0.565991    -3.177840
 H     7.620262     1.165042    -2.797130
 H     8.196346    -0.022967    -1.599721
 C     2.559632     1.042649     2.283209
 H     3.015433     0.097005     2.585996
 C     1.343883     2.377881     0.693426
 H     0.813527     2.457938    -0.262409
 C     2.683032     2.156483     3.111313
 H     3.216661     2.062499     4.061285
 C     1.493117     3.490143     1.511080
 H     1.075231     4.449205     1.193936
 C     2.146870     3.396074     2.746165
 C     2.240394     4.589774     3.649419
 H     2.667245     5.457064     3.122220
 H     1.239191     4.885800     4.001591
 H     2.864429     4.385086     4.530441
