  88
scf done:    -2747.575653
 C     1.058241    -2.492884    -2.722660
 H     0.612447    -2.828188    -3.672171
 H     1.959306    -1.921154    -2.994034
 C     1.445475    -3.709510    -1.887459
 H     0.569419    -4.326069    -1.626824
 H     2.151532    -4.367256    -2.427231
 H     1.937365    -3.422029    -0.943869
Ir    -0.285440    -1.276844    -1.590853
 C     1.684464    -0.134855     1.248887
 O     2.968461    -0.960558    -0.967786
 O     1.635096     1.257624    -1.121361
 C    -2.110653     1.470800    -0.144253
 O    -3.324357    -0.895118    -0.585127
 O    -1.697536    -0.595042     1.408421
 P    -1.811889    -0.318345    -0.227354
 P     1.514796    -0.282728    -0.559607
 C    -1.543933    -1.526816    -2.954263
 O    -2.269614    -1.544973    -3.844717
 C     1.104775     0.915435     1.970494
 H     0.583210     1.723739     1.458547
 C     2.318910    -1.175002     1.935046
 H     2.734374    -2.014395     1.370901
 C     1.212481     0.935154     3.356477
 H     0.776873     1.764218     3.919496
 C     2.429568    -1.167389     3.329209
 C     3.110882    -2.299028     4.040093
 H     2.533157    -3.229113     3.922272
 H     4.116811    -2.483403     3.632027
 H     3.212036    -2.097441     5.115573
 C     1.876393    -0.089867     4.027527
 H     1.956803    -0.061591     5.117618
 C     4.164087    -0.298111    -1.045170
 C     5.104900    -0.433761    -0.024138
 H     4.873750    -1.058492     0.838741
 C     4.436020     0.491660    -2.163357
 H     3.681290     0.578205    -2.946305
 C     6.319954     0.243438    -0.119729
 H     7.056794     0.139876     0.680312
 C     5.650364     1.166972    -2.244544
 H     5.859123     1.793713    -3.114542
 C     6.593889     1.049896    -1.223472
 H     7.544285     1.583643    -1.290643
 C     1.945529     2.449149    -0.512647
 C     3.138869     2.658913     0.177164
 H     3.873324     1.859224     0.266946
 C     1.002342     3.469718    -0.631282
 H     0.076403     3.269072    -1.171865
 C     3.373071     3.901870     0.762797
 H     4.306386     4.063592     1.307058
 C     1.250051     4.706579    -0.042890
 H     0.504643     5.500353    -0.135116
 C     2.434687     4.927556     0.660481
 H     2.627979     5.897694     1.123626
 C    -2.400383     2.104282    -1.359253
 H    -2.449856     1.521338    -2.282922
 C    -2.024799     2.220407     1.029719
 H    -1.811819     1.709294     1.970522
 C    -2.620107     3.477667    -1.379790
 H    -2.863834     3.975705    -2.320994
 C    -2.202161     3.608378     1.012644
 C    -2.017457     4.414092     2.264283
 H    -2.312940     3.844995     3.157619
 H    -0.956429     4.692169     2.385963
 H    -2.601993     5.344871     2.239416
 C    -2.514999     4.222088    -0.204958
 H    -2.674553     5.303615    -0.234584
 C    -4.511890    -0.337426    -0.186952
 C    -4.802488    -0.087214     1.154576
 H    -4.063892    -0.327631     1.919601
 C    -5.444934    -0.049188    -1.182817
 H    -5.182602    -0.262209    -2.220974
 C    -6.037901     0.463757     1.490477
 H    -6.267506     0.661030     2.540434
 C    -6.677566     0.494681    -0.833100
 H    -7.408560     0.718429    -1.613774
 C    -6.977765     0.756786     0.503820
 H    -7.944448     1.186040     0.775959
 C    -1.196073    -1.720601     2.004923
 C    -1.115154    -1.688677     3.397744
 H    -1.439854    -0.788809     3.922191
 C    -0.787563    -2.856375     1.302684
 H    -0.856543    -2.880937     0.206705
 C    -0.614741    -2.788689     4.086656
 H    -0.552960    -2.755368     5.177106
 C    -0.276556    -3.946759     2.003943
 H     0.048808    -4.827318     1.444877
 C    -0.189427    -3.922947     3.394617
 H     0.200135    -4.786885     3.937823
