  98
scf done:    -3523.552001
 C    -1.063229     2.883871    -1.649509
 H    -0.856104     3.202393    -2.684929
 H    -2.103485     2.519442    -1.676107
 C    -0.967726     4.077753    -0.706091
 H     0.037539     4.528715    -0.715661
 H    -1.686814     4.875481    -0.971435
 H    -1.179614     3.792713     0.338217
Ir     0.359317     1.349649    -1.095008
 C    -2.451686     1.249197     0.882922
 O    -2.473804     0.052465    -1.711220
 O    -1.566035    -1.236607     0.283673
 C     1.689197    -1.744107     0.366125
 O     3.150096    -0.332039    -1.400866
 O     2.798335     0.618275     0.964712
 P     1.932499    -0.050301    -0.294763
 P    -1.548466     0.290872    -0.384210
 C     1.623925     2.383949    -2.020287
 O     2.348457     3.020010    -2.641698
 C    -1.733990     1.406171     2.087317
 O    -0.565253     0.743882     2.140129
 C     0.172684     0.682181     3.335755
 H     1.082054     0.116380     3.098753
 H     0.461273     1.687192     3.684645
 H    -0.403000     0.166909     4.122890
 C    -3.683396     1.908212     0.742033
 O    -4.355364     1.699660    -0.402676
 C    -5.586556     2.340771    -0.604677
 H    -5.951334     2.005314    -1.582560
 H    -5.474051     3.437817    -0.613990
 H    -6.323979     2.056925     0.165079
 C    -4.175944     2.712458     1.778440
 H    -5.126472     3.232822     1.674966
 C    -2.229774     2.188425     3.131758
 H    -1.677781     2.292430     4.064579
 C    -3.446295     2.838585     2.954900
 H    -3.841098     3.461453     3.760915
 C    -3.606577    -0.640287    -2.013622
 C    -4.507673    -0.012756    -2.877665
 H    -4.277186     0.997777    -3.218002
 C    -3.843042    -1.951143    -1.594646
 H    -3.124184    -2.456439    -0.952370
 C    -5.656909    -0.673257    -3.295814
 H    -6.370414    -0.201187    -3.973946
 C    -5.001138    -2.611818    -2.003795
 H    -5.208789    -3.633453    -1.680655
 C    -5.897472    -1.966683    -2.843600
 F    -7.003272    -2.600513    -3.235397
 C    -2.196413    -1.630972     1.433229
 C    -1.431117    -2.283803     2.398386
 H    -0.369619    -2.438035     2.209580
 C    -3.562610    -1.427853     1.641983
 H    -4.167109    -0.931396     0.882766
 C    -2.022221    -2.728254     3.576533
 H    -1.441699    -3.246497     4.341995
 C    -4.156190    -1.862989     2.824971
 H    -5.220244    -1.709561     3.011863
 C    -3.379473    -2.505028     3.779976
 F    -3.947006    -2.921598     4.912757
 C     2.123753    -2.298179     1.588786
 O     2.775071    -1.499859     2.453115
 C     3.303572    -2.037196     3.633181
 H     3.824808    -1.214184     4.138263
 H     2.514235    -2.424254     4.301336
 H     4.024728    -2.846228     3.425658
 C     1.005274    -2.588658    -0.536239
 O     0.679469    -2.016200    -1.701189
 C    -0.146131    -2.674217    -2.623833
 H    -0.357635    -1.944460    -3.414532
 H    -1.096348    -2.986157    -2.161897
 H     0.357552    -3.554012    -3.059154
 C     0.723262    -3.923247    -0.231284
 H     0.184353    -4.555124    -0.935508
 C     1.865586    -3.645308     1.885930
 H     2.205994    -4.078960     2.824456
 C     1.167981    -4.435574     0.979545
 H     0.967922    -5.480597     1.227100
 C     4.081146    -1.325099    -1.319202
 C     4.277620    -2.117356    -2.451751
 H     3.671811    -1.917455    -3.337009
 C     4.833265    -1.555361    -0.163624
 H     4.660696    -0.941156     0.721193
 C     5.225023    -3.136429    -2.437229
 H     5.397849    -3.766781    -3.311432
 C     5.776550    -2.580078    -0.144782
 H     6.375581    -2.782438     0.745159
 C     5.962701    -3.357932    -1.280287
 F     6.868222    -4.338531    -1.259908
 C     3.097408     1.957506     0.927982
 C     2.134160     2.907290     1.274615
 H     1.127679     2.574099     1.527676
 C     4.373695     2.357714     0.537566
 H     5.103873     1.601375     0.244619
 C     2.454263     4.261292     1.245317
 H     1.715862     5.023552     1.499129
 C     4.698695     3.712343     0.506930
 H     5.688695     4.053858     0.200232
 C     3.733697     4.646474     0.861728
 F     4.041097     5.943958     0.831286
