  80
scf done:    -2915.380929
 C    -1.638632    -1.709025     2.804683
 H    -1.552819    -1.486702     3.881154
 H    -2.614027    -1.277663     2.515825
 C    -1.663423    -3.218934     2.590355
 H    -0.736042    -3.694432     2.947657
 H    -2.503846    -3.701310     3.123367
 H    -1.766831    -3.485146     1.525519
Ir     0.009662    -0.818984     1.736881
 O    -0.918879     0.335546    -1.258040
 C    -2.596115    -1.639853    -0.495569
 C    -2.762670     0.982294     0.697608
 O     3.140965     0.082792     1.458277
 C     2.279859    -1.057326    -0.896401
 C     1.652710     1.681530    -0.143611
 P     1.752936    -0.024397     0.511887
 P    -1.578620    -0.278547     0.156715
 C     1.056844    -1.111222     3.269674
 O     1.659463    -1.245540     4.235904
 C    -1.582719     1.154232    -2.132321
 C    -1.642991     2.524728    -1.872945
 H    -1.185600     2.911160    -0.960891
 C    -2.161293     0.624650    -3.285645
 H    -2.102746    -0.448758    -3.470164
 C    -2.285778     3.367051    -2.775055
 H    -2.329059     4.439417    -2.570916
 C    -2.804646     1.477338    -4.182152
 H    -3.256759     1.063959    -5.086855
 C    -2.870720     2.847135    -3.930235
 H    -3.375482     3.510478    -4.635993
 C    -3.838403    -1.981088     0.051837
 H    -4.280656    -1.363992     0.836264
 C    -2.041794    -2.455652    -1.492340
 H    -1.067912    -2.202527    -1.918341
 C    -4.521687    -3.110304    -0.391124
 H    -5.490459    -3.391709     0.024933
 C    -2.717444    -3.582535    -1.945989
 H    -2.303273    -4.225672    -2.724545
 C    -3.951673    -3.895735    -1.385131
 F    -4.601318    -4.972618    -1.813500
 C    -3.926195     1.288682    -0.023088
 H    -4.184063     0.722060    -0.920600
 C    -2.440198     1.728137     1.838735
 H    -1.530812     1.465241     2.390946
 C    -4.755959     2.324377     0.389380
 H    -5.663170     2.585057    -0.157966
 C    -3.263400     2.766792     2.259888
 H    -3.035673     3.356872     3.149141
 C    -4.409561     3.050173     1.525222
 F    -5.200269     4.041821     1.919158
 C     4.395336     0.276687     0.952182
 C     4.852968     1.557981     0.635456
 H     4.199410     2.416246     0.794244
 C     5.224521    -0.832389     0.772298
 H     4.840385    -1.820409     1.032233
 C     6.137781     1.718324     0.118706
 H     6.494544     2.720829    -0.129780
 C     6.507795    -0.660368     0.260784
 H     7.153043    -1.530757     0.119866
 C     6.966563     0.613543    -0.075317
 H     7.972457     0.746310    -0.479691
 C     3.297531    -0.723510    -1.804100
 H     3.830067     0.225344    -1.716842
 C     1.647428    -2.302148    -1.016984
 H     0.880647    -2.568460    -0.280033
 C     3.653227    -1.601190    -2.822992
 H     4.443867    -1.358993    -3.535125
 C     1.990104    -3.187497    -2.034120
 H     1.504667    -4.159546    -2.138721
 C     2.989342    -2.819091    -2.927402
 F     3.326279    -3.655710    -3.903804
 C     1.459525     2.687323     0.815350
 H     1.399944     2.413977     1.872673
 C     1.692919     2.036094    -1.494926
 H     1.784142     1.266218    -2.261826
 C     1.348771     4.021778     0.439960
 H     1.203224     4.815646     1.174760
 C     1.585451     3.368937    -1.885754
 H     1.605608     3.658442    -2.937609
 C     1.422447     4.344865    -0.912117
 F     1.313224     5.619131    -1.279799
