  82
scf done:    -2145.060560
 C    -2.990881    -1.738344    -1.224018
 H    -3.192025    -2.041859    -2.263538
 H    -3.109425    -2.660067    -0.634233
 C    -4.029217    -0.702927    -0.805422
 H    -4.001906     0.187539    -1.453867
 H    -5.058697    -1.102924    -0.860685
 H    -3.879044    -0.346261     0.229248
Ir    -1.071117    -0.833214    -1.069557
 O    -1.532943     0.039950     2.364696
 C    -2.322997    -2.413809     1.877215
 C     0.589421    -1.609141     1.848028
 O     1.814791     1.197982    -0.266272
 C     1.351355     0.892984    -2.981499
 C    -0.304684     2.485777    -1.024220
 P     0.519612     0.852999    -1.305041
 P    -1.106834    -1.157480     1.249905
 C    -0.645199    -1.612929    -2.686490
 O    -0.291875    -2.243648    -3.589235
 C    -1.249758     1.364494     2.254532
 C    -2.269836     2.250714     1.906222
 H    -3.259194     1.850642     1.677152
 C     0.023327     1.860025     2.549549
 H     0.820547     1.168857     2.825812
 C    -2.012905     3.618118     1.849258
 H    -2.819685     4.301180     1.569394
 C     0.266233     3.228176     2.481659
 H     1.270636     3.601335     2.700438
 C    -0.742172     4.134239     2.129559
 C    -0.467873     5.609007     2.073195
 H    -1.235610     6.139311     1.491956
 H     0.510578     5.817954     1.615156
 H    -0.455279     6.051193     3.083325
 H    -3.234048    -2.117033     1.332422
 C    -1.955704    -3.826398     1.432127
 H    -2.839471    -4.479654     1.501886
 H    -1.594795    -3.857759     0.393515
 H    -1.177853    -4.257759     2.079501
 C    -2.646241    -2.350375     3.365672
 H    -2.928171    -1.336955     3.677306
 H    -3.491590    -3.025242     3.577045
 H    -1.802446    -2.676444     3.989166
 H     1.143956    -0.705170     1.545051
 C     0.731582    -1.774369     3.354873
 H     1.798633    -1.737738     3.627265
 H     0.207652    -0.984656     3.911972
 H     0.341761    -2.746121     3.693006
 C     1.193010    -2.777697     1.076124
 H     1.020124    -2.668431    -0.004957
 H     2.278640    -2.808869     1.248394
 H     0.771503    -3.739124     1.399569
 C     2.829293     0.368681     0.069547
 C     3.569911     0.711107     1.208503
 H     3.286868     1.609806     1.760135
 C     3.178357    -0.774927    -0.650132
 H     2.599626    -1.073040    -1.525231
 C     4.636627    -0.079945     1.612489
 H     5.200451     0.203700     2.505949
 C     4.258598    -1.553227    -0.233581
 H     4.514326    -2.446947    -0.809356
 C     5.007405    -1.230161     0.899384
 C     6.171787    -2.069182     1.340260
 H     6.078438    -2.363981     2.397380
 H     7.122644    -1.520434     1.241187
 H     6.254339    -2.987141     0.741527
 H     1.600536    -0.168816    -3.150307
 C     0.354472     1.290087    -4.067108
 H     0.768902     1.048118    -5.058128
 H    -0.602408     0.756054    -3.968703
 H     0.148891     2.370495    -4.048574
 C     2.642925     1.697057    -3.067435
 H     3.382662     1.381202    -2.319639
 H     3.093575     1.552207    -4.062643
 H     2.469577     2.773248    -2.937692
 H    -0.411363     2.440045     0.069068
 C     0.518395     3.724894    -1.341713
 H     0.016297     4.608898    -0.916490
 H     1.522890     3.664516    -0.900247
 H     0.617410     3.895095    -2.424386
 C    -1.709958     2.534887    -1.610224
 H    -2.282822     1.632186    -1.343629
 H    -2.245219     3.407440    -1.204088
 H    -1.707471     2.620947    -2.706109
