 104
scf done:    -2832.881177
 C    -0.833146     3.310274    -1.162658
 H    -1.683569     3.384560    -1.862688
 H    -1.266714     3.408278    -0.149479
 C     0.117698     4.479390    -1.388239
 H     0.487002     4.515110    -2.425485
 H    -0.365328     5.451838    -1.180578
 H     1.004647     4.412888    -0.736601
Ir     0.111051     1.405044    -1.237653
 O    -1.364982    -0.173394     1.407043
 C    -3.199119     1.422185     0.042096
 C    -2.111782    -1.223293    -1.002291
 O     1.164277    -1.881712    -1.091424
 C     3.257334    -0.123129    -1.563453
 C     1.922571    -0.430170     1.067513
 P     1.588746    -0.275561    -0.743092
 P    -1.676305     0.371505    -0.159440
 C     0.969497     1.896676    -2.813064
 O     1.371730     2.085120    -3.878665
 C    -2.068700     0.072982     2.551438
 C    -3.270621    -0.588051     2.814679
 H    -3.666867    -1.295193     2.084319
 C    -1.534115     0.971131     3.477777
 H    -0.587110     1.465034     3.248838
 C    -3.939024    -0.337102     4.011622
 H    -4.877983    -0.856984     4.217138
 C    -2.211307     1.210006     4.671693
 H    -1.790934     1.911636     5.396125
 C    -3.416023     0.560883     4.941972
 H    -3.944849     0.751943     5.878326
 H    -3.301181     1.588078     1.125174
 H    -2.896536     2.387017    -0.387172
 C    -4.515914     0.997618    -0.535264
 C    -5.550443     0.605764     0.320677
 H    -5.366902     0.593795     1.397623
 C    -4.745443     1.033459    -1.926731
 C    -3.708854     1.542481    -2.886326
 H    -2.683447     1.221837    -2.643985
 H    -3.687945     2.645349    -2.882804
 H    -3.929750     1.222807    -3.914019
 C    -6.792855     0.220655    -0.173154
 H    -7.582695    -0.086706     0.515999
 C    -5.995190     0.625969    -2.407899
 H    -6.173518     0.639876    -3.486684
 C    -7.012940     0.217581    -1.548021
 H    -7.978304    -0.093543    -1.954199
 H    -2.539756    -0.918780    -1.969397
 H    -1.124248    -1.656220    -1.223525
 C    -3.010666    -2.209391    -0.305635
 C    -4.380439    -2.218669    -0.593172
 H    -4.771643    -1.522602    -1.335966
 C    -2.502541    -3.160476     0.608508
 C    -1.035958    -3.295015     0.881533
 H    -0.603027    -2.347489     1.227481
 H    -0.491957    -3.584922    -0.029738
 H    -0.849289    -4.063727     1.643790
 C    -5.257061    -3.091148     0.045210
 H    -6.321624    -3.058668    -0.196753
 C    -3.398226    -4.027540     1.244366
 H    -3.002945    -4.753838     1.959637
 C    -4.765745    -3.991978     0.984813
 H    -5.439398    -4.679582     1.501976
 C     2.013157    -2.949659    -1.091727
 C     2.351596    -3.609838     0.093383
 H     1.929916    -3.269036     1.038864
 C     2.509104    -3.412923    -2.313828
 H     2.201666    -2.906682    -3.231176
 C     3.217081    -4.700689     0.052698
 H     3.483285    -5.208333     0.982767
 C     3.373116    -4.505291    -2.344455
 H     3.762525    -4.857299    -3.302543
 C     3.738965    -5.146868    -1.161163
 H     4.419331    -6.000599    -1.186476
 H     3.257028    -0.903502    -2.339636
 H     3.212276     0.835966    -2.093641
 C     4.510371    -0.212536    -0.742453
 C     5.135125    -1.450070    -0.540971
 H     4.687888    -2.349958    -0.968226
 C     5.099731     0.954957    -0.211842
 C     4.497219     2.309442    -0.442035
 H     3.435267     2.345030    -0.158238
 H     4.558099     2.598625    -1.504768
 H     5.020774     3.076247     0.143994
 C     6.324080    -1.551156     0.176740
 H     6.793540    -2.527706     0.315470
 C     6.291927     0.832520     0.510596
 H     6.748355     1.735469     0.924806
 C     6.905576    -0.402039     0.707210
 H     7.837766    -0.464449     1.273756
 H     0.976473    -0.832299     1.468683
 H     2.698574    -1.195507     1.189075
 C     2.293029     0.827092     1.807859
 C     1.561446     2.006550     1.625883
 H     0.724867     2.008929     0.910755
 C     3.357923     0.822604     2.733083
 C     4.130896    -0.427225     3.035921
 H     4.597047    -0.850728     2.134078
 H     3.479228    -1.204723     3.467402
 H     4.933204    -0.225592     3.758292
 C     1.884277     3.182552     2.296416
 H     1.299989     4.087835     2.115890
 C     3.675047     2.013770     3.396143
 H     4.507961     2.012043     4.104551
 C     2.957830     3.188425     3.182432
 H     3.234201     4.102604     3.713324
