  58
scf done:    -1830.820311
 C    -3.949834     1.198479     0.393624
 H    -4.822385     0.683871     0.827011
 H    -3.684593     1.963810     1.145400
 C    -4.369200     1.872222    -0.910259
 H    -4.725284     1.135233    -1.647268
 H    -5.186555     2.602566    -0.760455
 H    -3.538768     2.414805    -1.392344
Ir    -2.330445    -0.166247     0.039340
 O     0.516646     1.529483    -0.550626
 C    -1.309997     3.320086     0.355346
 C    -0.169538     1.413412     2.133839
 O     0.739254    -1.383830     0.453227
 C    -0.880183    -3.328083    -0.582536
 C     0.099987    -1.239418    -2.225574
 P    -0.603093    -1.523750    -0.566242
 P    -0.833048     1.563740     0.447895
 C    -3.539287    -1.562721     0.261888
 O    -4.254714    -2.434700     0.495821
 C     1.650855     2.265217    -0.337486
 C     2.653301     1.783791     0.507162
 H     2.507985     0.828658     1.013408
 C     1.837216     3.467695    -1.018785
 H     1.056926     3.821055    -1.695669
 C     3.826386     2.514099     0.671040
 H     4.607296     2.122667     1.329011
 C     3.017321     4.186822    -0.843901
 H     3.155154     5.125422    -1.387783
 C     4.030681     3.729825     0.006141
 C     5.288142     4.522797     0.215379
 H     5.224255     5.132617     1.132163
 H     5.476487     5.209342    -0.622302
 H     6.164839     3.867117     0.323034
 H    -2.163856     3.492946     1.025044
 H    -0.472556     3.968156     0.651909
 H    -1.621347     3.561838    -0.669893
 H     0.573594     2.190734     2.364588
 H    -1.022838     1.494549     2.823058
 H     0.269342     0.411682     2.235911
 C     1.902231    -2.082405     0.292897
 C     2.914081    -1.599801    -0.539555
 H     2.757494    -0.668315    -1.085356
 C     2.111032    -3.256238     1.020268
 H     1.321963    -3.611688     1.685881
 C     4.115501    -2.296655    -0.645533
 H     4.901895    -1.903250    -1.295739
 C     3.316493    -3.941406     0.903620
 H     3.467942    -4.856234     1.483587
 C     4.339970    -3.480421     0.065806
 C     5.625207    -4.243375    -0.076070
 H     6.438611    -3.598927    -0.438963
 H     5.517391    -5.072558    -0.795351
 H     5.940660    -4.684125     0.881285
 H     0.027282    -3.885854    -0.857197
 H    -1.231406    -3.652630     0.407012
 H    -1.674446    -3.539124    -1.313978
 H     0.430865    -0.193629    -2.281782
 H     0.932202    -1.919596    -2.458764
 H    -0.713419    -1.391100    -2.950663
