  80
scf done:    -4356.492274
 C    -1.556377    -1.415196     3.059975
 H    -1.579922    -1.022588     4.089806
 H    -2.547351    -1.153098     2.647735
 C    -1.396965    -2.931705     3.088252
 H    -0.454891    -3.231198     3.574587
 H    -2.219454    -3.426189     3.637694
 H    -1.384008    -3.366782     2.075349
Ir     0.066543    -0.515161     1.962905
 O    -0.757883     0.072463    -1.222621
 C    -2.258244    -1.956360    -0.270442
 C    -2.800017     0.770584     0.499586
 O     3.111922     0.663317     1.720621
 C     2.542824    -0.948215    -0.441518
 C     1.598766     1.794193    -0.227222
 P     1.817900     0.249185     0.730824
 P    -1.445386    -0.404554     0.228649
 C     1.004107    -0.412451     3.589020
 O     1.529204    -0.297857     4.601715
 C    -1.424728     0.710951    -2.235211
 C    -1.624887     2.090076    -2.157438
 H    -1.281601     2.626605    -1.271881
 C    -1.857061    -0.007382    -3.349350
 H    -1.691211    -1.084819    -3.390470
 C    -2.253142     2.754470    -3.206024
 H    -2.392632     3.836303    -3.146529
 C    -2.491740     0.666834    -4.392455
 H    -2.829576     0.106437    -5.267425
 C    -2.691073     2.045320    -4.325145
 H    -3.184717     2.568138    -5.147253
 C    -1.556828    -2.822306    -1.120479
 H    -0.594537    -2.512226    -1.535111
 C    -3.484452    -2.370094     0.261272
 H    -4.042958    -1.713512     0.931345
 C    -2.071391    -4.072229    -1.444122
 H    -1.530148    -4.746780    -2.109516
 C    -4.006655    -3.621748    -0.052604
 H    -4.962253    -3.947664     0.360650
 C    -3.297053    -4.465932    -0.904827
Cl    -3.942173    -6.020061    -1.300634
 C    -2.652661     1.710753     1.526111
 H    -1.768328     1.644395     2.169966
 C    -3.927739     0.825536    -0.330762
 H    -4.051958     0.104690    -1.142025
 C    -3.613180     2.696811     1.724180
 H    -3.508937     3.430639     2.524656
 C    -4.893090     1.807171    -0.141569
 H    -5.770423     1.862531    -0.787371
 C    -4.726226     2.739084     0.884307
Cl    -5.922144     3.964896     1.117721
 C     4.376404     0.906490     1.260536
 C     4.726054     2.158459     0.749668
 H     3.980527     2.953577     0.718657
 C     5.321968    -0.118697     1.325818
 H     5.019662    -1.085042     1.733371
 C     6.023308     2.370194     0.285079
 H     6.296204     3.349391    -0.115740
 C     6.616133     0.105297     0.864196
 H     7.353202    -0.699627     0.914620
 C     6.969529     1.346829     0.335030
 H     7.984339     1.519544    -0.030012
 C     2.029142    -2.250201    -0.387215
 H     1.232225    -2.465897     0.334444
 C     3.594021    -0.672341    -1.329004
 H     4.036098     0.324734    -1.375049
 C     2.522080    -3.253291    -1.215674
 H     2.118969    -4.266465    -1.173490
 C     4.099550    -1.667401    -2.159302
 H     4.918263    -1.456364    -2.848777
 C     3.554803    -2.950816    -2.102348
Cl     4.177397    -4.186067    -3.140583
 C     1.209959     2.918379     0.515918
 H     1.102259     2.832436     1.601003
 C     1.702968     1.907373    -1.615582
 H     1.952320     1.035719    -2.221546
 C     0.951703     4.133975    -0.107825
 H     0.643725     5.007804     0.468538
 C     1.448841     3.118910    -2.253658
 H     1.511250     3.201357    -3.339515
 C     1.073162     4.224715    -1.495886
Cl     0.697360     5.716069    -2.290263
