  94
scf done:    -3222.771188
 C    -1.469624     0.527760    -3.022003
 H    -1.352273    -0.019522    -3.970876
 H    -2.526576     0.407263    -2.739248
 C    -1.171379     2.006781    -3.241815
 H    -0.135901     2.173266    -3.582810
 H    -1.836400     2.453183    -4.005394
 H    -1.314572     2.598268    -2.320800
Ir    -0.074127    -0.131070    -1.545864
 C    -2.657751     1.776463     0.075587
 C    -3.187841    -1.061420    -0.448518
 C    -1.644603    -0.434432     1.698597
 C     1.954439    -1.236641     1.346530
 C     3.400672    -0.502445    -0.984140
 C     2.241871     1.571495     0.329326
 P     1.792990    -0.150862    -0.127667
 P    -1.840578     0.131159    -0.042720
 C     0.715912    -1.259473    -2.771013
 O     1.077022    -2.132638    -3.440823
 C    -1.982849     2.779451     0.801214
 O    -0.813191     2.402296     1.343973
 C    -0.145299     3.252845     2.235065
 H     0.798987     2.752133     2.472706
 H     0.081204     4.229336     1.779490
 H    -0.736832     3.406504     3.154951
 C    -3.826953     2.144709    -0.623726
 O    -4.390606     1.210346    -1.401567
 C    -5.569908     1.482444    -2.103624
 H    -5.828565     0.557086    -2.633100
 H    -5.428338     2.292335    -2.839667
 H    -6.397322     1.750541    -1.424316
 C    -4.351590     3.439492    -0.505728
 H    -5.264314     3.714798    -1.031967
 C    -2.507062     4.070094     0.931242
 H    -1.990209     4.826562     1.519621
 C    -3.693720     4.379993     0.276912
 H    -4.108989     5.386508     0.366730
 C    -4.333971    -1.124740     0.353985
 H    -4.452851    -0.431020     1.190444
 C    -3.037906    -1.972227    -1.493428
 H    -2.130948    -1.926335    -2.102147
 C    -5.328958    -2.059485     0.100248
 H    -6.231021    -2.120145     0.711914
 C    -4.024389    -2.923327    -1.755201
 H    -3.921701    -3.643672    -2.568794
 C    -5.159235    -2.948882    -0.958194
 F    -6.110349    -3.850466    -1.202112
 C    -2.062241     0.257322     2.836801
 H    -2.509085     1.248528     2.746210
 C    -1.136342    -1.731987     1.841591
 H    -0.827686    -2.285494     0.950330
 C    -1.935622    -0.315044     4.102034
 H    -2.250495     0.214797     5.003241
 C    -1.025009    -2.323757     3.093472
 H    -0.619868    -3.328681     3.215174
 C    -1.407143    -1.594295     4.211764
 F    -1.253316    -2.131662     5.424276
 C     1.920180    -0.876555     2.705631
 O     1.669208     0.411573     3.004603
 C     1.652578     0.806960     4.349552
 H     1.455041     1.885628     4.354703
 H     0.852802     0.296437     4.911349
 H     2.621933     0.621985     4.843103
 C     2.049582    -2.612003     1.031846
 O     1.952646    -2.894618    -0.275146
 C     2.128698    -4.202278    -0.748775
 H     2.007742    -4.145235    -1.837169
 H     1.370415    -4.888101    -0.334280
 H     3.135961    -4.583221    -0.509173
 C     2.235279    -3.582791     2.019822
 H     2.335065    -4.635307     1.757687
 C     2.124926    -1.843869     3.701720
 H     2.117817    -1.566381     4.754066
 C     2.292459    -3.176249     3.349065
 H     2.444696    -3.920964     4.133761
 C     3.565466    -0.010428    -2.283193
 H     2.728585     0.492394    -2.775389
 C     4.483957    -1.132126    -0.363330
 H     4.386546    -1.512343     0.656105
 C     4.773339    -0.154397    -2.958800
 H     4.908208     0.221995    -3.974321
 C     5.697692    -1.289523    -1.028470
 H     6.547305    -1.787402    -0.557297
 C     5.826157    -0.798496    -2.321437
 F     6.985032    -0.947735    -2.962317
 C     3.301263     1.895557     1.185340
 H     3.834184     1.105693     1.718237
 C     1.614930     2.594491    -0.387888
 H     0.804316     2.339381    -1.078746
 C     3.695907     3.217473     1.359186
 H     4.516036     3.489004     2.026450
 C     2.013269     3.922116    -0.242561
 H     1.532987     4.727503    -0.801251
 C     3.043540     4.215335     0.639662
 F     3.424049     5.482248     0.801643
