 100
scf done:    -2904.731053
 C     1.867826     1.005091     3.086225
 H     1.775212     0.283524     3.917992
 H     2.816250     0.735047     2.594485
 C     1.985328     2.421924     3.637832
 H     1.122466     2.701745     4.262982
 H     2.889721     2.546826     4.261050
 H     2.043917     3.178906     2.837455
Ir     0.165508     0.647356     1.809611
 C     2.827866     0.809610    -0.539483
 O     2.674749    -1.333845     1.170215
 O     1.231687    -1.197951    -0.942634
 C    -2.688255    -1.025536     0.378622
 O    -2.727593     1.623516     0.731337
 O    -1.344503     0.583628    -1.199097
 P    -1.600581     0.420934     0.435418
 P     1.698226    -0.279111     0.350671
 C    -0.921215     1.309621     3.195133
 O    -1.590415     1.659441     4.058242
 C     3.609436     0.359636    -1.612415
 H     3.500608    -0.661545    -1.980297
 C     2.947332     2.122954    -0.083884
 H     2.306731     2.457528     0.737144
 C     4.524571     1.229237    -2.191329
 H     5.149698     0.886731    -3.019269
 C     3.863748     3.007007    -0.664805
 C     3.952130     4.425190    -0.186045
 H     3.094809     5.011180    -0.556926
 H     3.928394     4.479831     0.912468
 H     4.870097     4.916926    -0.537493
 C     4.656721     2.535002    -1.714321
 H     5.390729     3.204581    -2.172274
 C     3.805766    -1.895770     0.627248
 C     3.718817    -3.063961    -0.126271
 H     2.745253    -3.530410    -0.287682
 C     5.040954    -1.290756     0.849709
 H     5.083517    -0.370413     1.435109
 C     4.879022    -3.617151    -0.663237
 H     4.805557    -4.532247    -1.257412
 C     6.189612    -1.857946     0.308066
 H     7.155005    -1.374284     0.480615
 C     6.132206    -3.028140    -0.459425
 C     7.380890    -3.647643    -1.017276
 H     7.166088    -4.258374    -1.906022
 H     7.861500    -4.306934    -0.275019
 H     8.119771    -2.882788    -1.298387
 C     0.356043    -2.247748    -0.896158
 C     0.016677    -2.910942     0.284356
 H     0.433542    -2.584966     1.239513
 C    -0.174400    -2.673490    -2.112630
 H     0.112693    -2.149746    -3.025518
 C    -0.863102    -3.988706     0.231364
 H    -1.130009    -4.494493     1.162717
 C    -1.047033    -3.755399    -2.144312
 H    -1.453209    -4.083683    -3.105210
 C    -1.411259    -4.434434    -0.975347
 C    -2.363618    -5.592797    -1.007530
 H    -3.329587    -5.316177    -0.554372
 H    -1.973196    -6.451318    -0.439905
 H    -2.558202    -5.927190    -2.036440
 C    -2.976437    -1.635140     1.605524
 H    -2.457577    -1.304612     2.509955
 C    -3.322035    -1.457695    -0.785120
 H    -3.081072    -0.974130    -1.733590
 C    -3.920742    -2.653511     1.657855
 H    -4.159614    -3.128902     2.612168
 C    -4.267466    -2.488141    -0.744542
 C    -4.926495    -2.951672    -2.009275
 H    -5.342926    -2.102839    -2.572919
 H    -4.195670    -3.451544    -2.666417
 H    -5.740309    -3.662300    -1.807734
 C    -4.564952    -3.069188     0.491841
 H    -5.314097    -3.864712     0.542423
 C    -3.960403     1.619808     0.124346
 C    -4.112204     2.077555    -1.182294
 H    -3.244420     2.452251    -1.727436
 C    -5.063424     1.143423     0.832066
 H    -4.920390     0.782951     1.852036
 C    -5.371690     2.042449    -1.778288
 H    -5.483573     2.399612    -2.805845
 C    -6.312445     1.114660     0.223221
 H    -7.169685     0.729893     0.782807
 C    -6.491320     1.558792    -1.093796
 C    -7.849199     1.537446    -1.734476
 H    -7.782072     1.655039    -2.825413
 H    -8.482746     2.355270    -1.352555
 H    -8.378028     0.595021    -1.525378
 C    -0.513704     1.548261    -1.705380
 C    -0.408074     2.819558    -1.138452
 H    -0.986843     3.071941    -0.248850
 C     0.220590     1.232825    -2.848292
 H     0.130104     0.231780    -3.269829
 C     0.436014     3.760961    -1.724975
 H     0.504915     4.756331    -1.277252
 C     1.058607     2.184038    -3.415962
 H     1.635987     1.920915    -4.306280
 C     1.183653     3.467849    -2.868570
 C     2.098784     4.481135    -3.489420
 H     1.938729     5.482665    -3.065585
 H     1.948989     4.546330    -4.578050
 H     3.153988     4.209148    -3.322018
