  96
scf done:    -2976.409066
 C    -1.437471    -1.275461     3.186813
 H    -1.398778    -0.834449     4.197008
 H    -2.433625    -0.989151     2.803214
 C    -1.347951    -2.795135     3.284768
 H    -0.401184    -3.115897     3.748500
 H    -2.169715    -3.224488     3.888362
 H    -1.395234    -3.276319     2.294088
Ir     0.164868    -0.474790     1.985922
 O    -0.763818    -0.035464    -1.197589
 C    -2.291473    -1.952193    -0.071711
 C    -2.718169     0.832363     0.551991
 O     3.182862     0.719201     1.575272
 C     2.534457    -0.930156    -0.536111
 C     1.558580     1.802738    -0.308496
 P     1.846966     0.271538     0.644816
 P    -1.421740    -0.402157     0.305715
 C     1.222333    -0.460688     3.534682
 O     1.838475    -0.429475     4.502679
 C    -1.462423     0.526969    -2.228733
 C    -1.652909     1.910142    -2.252911
 H    -1.266942     2.510152    -1.427863
 C    -1.950009    -0.271913    -3.263427
 H    -1.792838    -1.350545    -3.224056
 C    -2.327640     2.493166    -3.320711
 H    -2.464588     3.576985    -3.339798
 C    -2.628859     0.321995    -4.326988
 H    -3.008684    -0.303249    -5.138729
 C    -2.820545     1.702755    -4.359716
 H    -3.349624     2.163126    -5.197229
 C    -3.523256    -2.294019     0.506388
 H    -4.046861    -1.576038     1.140812
 C    -1.639790    -2.901119    -0.865405
 H    -0.674042    -2.655699    -1.314611
 C    -4.086283    -3.541211     0.286268
 H    -5.043480    -3.817964     0.731549
 C    -2.197713    -4.155877    -1.096851
 H    -1.663782    -4.868812    -1.725524
 C    -3.430153    -4.484266    -0.517013
 O    -4.052109    -5.666298    -0.675901
 C    -3.437081    -6.657952    -1.449847
 H    -2.458052    -6.954199    -1.033854
 H    -4.105815    -7.527720    -1.435760
 H    -3.295843    -6.334015    -2.496183
 C    -2.492129     1.845736     1.497571
 H    -1.585876     1.790100     2.110814
 C    -3.878074     0.881705    -0.228069
 H    -4.068406     0.109204    -0.976834
 C    -3.398436     2.880454     1.652770
 H    -3.240555     3.672295     2.387108
 C    -4.797145     1.916055    -0.079209
 H    -5.687998     1.930618    -0.706766
 C    -4.556891     2.926896     0.861556
 O    -5.377190     3.969989     1.073317
 C    -6.553594     4.075217     0.319153
 H    -7.224161     3.213866     0.483789
 H    -7.060562     4.988629     0.654511
 H    -6.341585     4.159626    -0.761099
 C     4.410702     1.001106     1.053199
 C     4.692130     2.258024     0.510645
 H     3.915560     3.023491     0.502317
 C     5.397323     0.012692     1.085263
 H     5.148122    -0.958623     1.516099
 C     5.957765     2.509991    -0.016356
 H     6.174846     3.492306    -0.443216
 C     6.659808     0.277002     0.561841
 H     7.427192    -0.500509     0.586435
 C     6.943154     1.523088     0.002015
 H     7.932871     1.727294    -0.412634
 C     3.553080    -0.669976    -1.471930
 H     3.995092     0.325142    -1.548224
 C     2.031655    -2.231648    -0.451581
 H     1.264775    -2.440851     0.303675
 C     4.022054    -1.673066    -2.303884
 H     4.813652    -1.482196    -3.030635
 C     2.490749    -3.249142    -1.285479
 H     2.071254    -4.250625    -1.186166
 C     3.491212    -2.969879    -2.223842
 O     4.006404    -3.874673    -3.075907
 C     3.527292    -5.189728    -3.037711
 H     2.447823    -5.239847    -3.265879
 H     4.078136    -5.747838    -3.805265
 H     3.704252    -5.662955    -2.055932
 C     1.681772     1.945688    -1.696752
 H     1.959038     1.089593    -2.312752
 C     1.129378     2.906753     0.435527
 H     1.003525     2.802266     1.517237
 C     1.421447     3.160651    -2.312820
 H     1.502322     3.275343    -3.395042
 C     0.858723     4.132112    -0.169739
 H     0.523581     4.968024     0.444522
 C     1.009976     4.265768    -1.556601
 O     0.760112     5.398896    -2.241026
 C     0.327301     6.530111    -1.538564
 H     1.072501     6.862581    -0.794542
 H     0.187589     7.326845    -2.280096
 H    -0.632393     6.350725    -1.022048
