  84
scf done:    -3216.171201
 C     1.257890    -3.817658    -1.008663
 H     1.537470    -4.102035    -2.037521
 H     2.209539    -3.580414    -0.508685
 C     0.580474    -4.992545    -0.310754
 H    -0.317295    -5.336825    -0.849164
 H     1.259330    -5.860264    -0.222509
 H     0.250849    -4.738376     0.710644
Ir    -0.018377    -2.106784    -1.056974
 O     1.576655    -0.117480     1.233330
 O     3.146800    -1.397743    -0.303746
 O     1.756378     0.605972    -1.137934
 O    -2.000698     0.490309    -2.009780
 O    -2.989263    -1.060788    -0.261746
 O    -1.169365     0.600364     0.418319
 P    -1.533675    -0.478600    -0.766932
 P     1.639122    -0.776506    -0.283180
 C    -1.114631    -3.027610    -2.289283
 O    -1.731770    -3.497397    -3.133448
 C     0.895503    -0.693696     2.272357
 C     0.809788    -2.078765     2.423900
 H     1.287093    -2.746128     1.702598
 C     0.301617     0.163191     3.198543
 H     0.371531     1.240691     3.041723
 C     0.108185    -2.602428     3.511151
 H     0.036140    -3.686398     3.625071
 C    -0.379240    -0.372304     4.286857
 H    -0.843173     0.300368     5.012032
 C    -0.483345    -1.756044     4.446391
 H    -1.022170    -2.172856     5.300003
 C     4.296434    -0.872199     0.250057
 C     4.463584    -0.815150     1.632097
 H     3.680116    -1.184856     2.293936
 C     5.306707    -0.443295    -0.608064
 H     5.155282    -0.516948    -1.685302
 C     5.635854    -0.278233     2.158891
 H     5.793819    -0.213287     3.236729
 C     6.478279     0.091696    -0.084742
 H     7.279690     0.449029    -0.733346
 C     6.623966     0.177570     1.295475
 F     7.740143     0.699390     1.800623
 C     2.792142     1.516807    -1.142458
 C     3.411240     1.773297    -2.363226
 H     3.068100     1.240449    -3.251649
 C     3.181878     2.189962     0.015056
 H     2.674444     1.981620     0.956318
 C     4.459610     2.686606    -2.426448
 H     4.969299     2.905338    -3.366345
 C     4.237034     3.094752    -0.045238
 H     4.580030     3.623879     0.845283
 C     4.867257     3.327391    -1.262279
 F     5.879904     4.189623    -1.315933
 C    -3.287680     0.884746    -2.302295
 C    -3.698854     2.183743    -2.010940
 H    -3.001687     2.876580    -1.539587
 C    -4.154354    -0.019688    -2.915956
 H    -3.804062    -1.028940    -3.139475
 C    -5.001234     2.570956    -2.322253
 H    -5.325891     3.588133    -2.091224
 C    -5.454371     0.377834    -3.218198
 H    -6.136369    -0.331719    -3.692300
 C    -5.884227     1.671304    -2.918196
 H    -6.904939     1.978884    -3.155485
 C    -3.698083    -0.649760     0.839392
 C    -4.893790     0.045530     0.665629
 H    -5.241895     0.274091    -0.342574
 C    -3.228047    -0.954212     2.116817
 H    -2.286811    -1.494414     2.233034
 C    -5.622670     0.449024     1.781855
 H    -6.561226     0.995975     1.677520
 C    -3.951743    -0.545149     3.232998
 H    -3.601326    -0.763639     4.242995
 C    -5.140763     0.153025     3.051811
 F    -5.834445     0.545470     4.120369
 C    -1.384385     1.953184     0.474762
 C    -2.322829     2.460643     1.372072
 H    -2.901481     1.773847     1.990302
 C    -0.622275     2.807790    -0.321910
 H     0.108462     2.381652    -1.009113
 C    -2.514631     3.836940     1.459930
 H    -3.245186     4.263713     2.149257
 C    -0.815012     4.183946    -0.236676
 H    -0.235771     4.876214    -0.850040
 C    -1.762131     4.681696     0.651626
 F    -1.948641     5.997995     0.734392
