  92
scf done:    -2675.748604
 C     1.789063    -2.176019    -2.449434
 H     1.405509    -2.388176    -3.461999
 H     2.565657    -1.406479    -2.596192
 C     2.428829    -3.434802    -1.875256
 H     1.701397    -4.257225    -1.782941
 H     3.258988    -3.800800    -2.507890
 H     2.844933    -3.264258    -0.869728
Ir     0.187599    -1.414642    -1.231600
 O     1.436845     0.305471     1.356546
 C     3.476972    -0.476297    -0.208330
 C     1.771228     1.708071    -1.013807
 O    -1.309819     1.014050     0.499922
 C    -3.175461    -0.555762    -0.678284
 C    -1.769205    -1.417517     1.669646
 P    -1.506276    -0.609359     0.056489
 P     1.738294     0.054195    -0.273250
 C    -0.870317    -2.728742    -2.031532
 O    -1.499228    -3.569678    -2.500510
 C     1.876841     1.394075     2.063254
 C     3.083046     1.339603     2.763634
 H     3.687830     0.433384     2.721202
 C     1.084584     2.543239     2.102289
 H     0.153289     2.553179     1.536895
 C     3.497447     2.448970     3.499524
 H     4.442136     2.407245     4.047204
 C     1.507869     3.642980     2.843455
 H     0.886329     4.541163     2.870706
 C     2.715355     3.602779     3.540773
 H     3.045293     4.468698     4.119167
 C     3.845876    -1.410789     0.769882
 H     3.107127    -1.739426     1.505367
 C     4.421959    -0.088450    -1.160408
 H     4.151956     0.626148    -1.941112
 C     5.137284    -1.919392     0.805496
 H     5.408014    -2.645291     1.577417
 C     5.714226    -0.610095    -1.121404
 H     6.441712    -0.294403    -1.873976
 C     6.096131    -1.529141    -0.140849
 C     7.483345    -2.098406    -0.099706
 H     8.122118    -1.664262    -0.881160
 H     7.962219    -1.911344     0.874391
 H     7.465501    -3.190254    -0.245932
 C     2.727417     2.679812    -0.683252
 H     3.538116     2.441365     0.008898
 C     0.740050     2.041235    -1.898085
 H     0.000865     1.273570    -2.150478
 C     2.639929     3.955848    -1.224382
 H     3.385624     4.706766    -0.949274
 C     0.663485     3.321580    -2.438325
 H    -0.147504     3.568089    -3.128988
 C     1.607055     4.300150    -2.108524
 C     1.533481     5.679970    -2.691610
 H     2.354094     5.847891    -3.408176
 H     0.586145     5.844671    -3.223232
 H     1.626501     6.448544    -1.909087
 C    -2.340466     1.871146     0.761400
 C    -2.849043     2.004985     2.054578
 H    -2.435382     1.395203     2.858368
 C    -2.855568     2.646435    -0.280165
 H    -2.437604     2.524734    -1.280484
 C    -3.884989     2.906382     2.295625
 H    -4.282557     3.007793     3.308460
 C    -3.891941     3.540214    -0.029964
 H    -4.297922     4.137616    -0.849833
 C    -4.413591     3.671622     1.257572
 H    -5.228537     4.372537     1.451540
 C    -3.276578    -0.441437    -2.069481
 H    -2.365506    -0.499344    -2.672856
 C    -4.342701    -0.467341     0.091010
 H    -4.286216    -0.539290     1.179116
 C    -4.513236    -0.245252    -2.675625
 H    -4.571682    -0.157909    -3.764096
 C    -5.575342    -0.271893    -0.521466
 H    -6.474864    -0.196775     0.095629
 C    -5.683857    -0.157213    -1.913175
 C    -7.019836     0.026257    -2.569811
 H    -7.458130    -0.948722    -2.841539
 H    -7.732064     0.530430    -1.900977
 H    -6.937183     0.614855    -3.495004
 C    -1.124664    -0.949225     2.820746
 H    -0.521591    -0.041751     2.766972
 C    -2.492128    -2.612815     1.740779
 H    -2.983219    -3.009816     0.847922
 C    -1.232652    -1.646603     4.018725
 H    -0.724374    -1.262377     4.907983
 C    -2.592735    -3.305369     2.944705
 H    -3.166790    -4.235288     2.982203
 C    -1.970923    -2.834284     4.105754
 C    -2.083599    -3.572374     5.407358
 H    -1.089697    -3.798691     5.824345
 H    -2.619215    -2.971419     6.160069
 H    -2.624922    -4.521221     5.288099
