 100
scf done:    -2380.753569
 C    -1.099589    -3.574202    -0.136006
 H    -0.631376    -4.517405     0.187443
 H    -2.057925    -3.535685     0.408803
 C    -1.349404    -3.640133    -1.640984
 H    -0.408885    -3.762069    -2.201984
 H    -2.002568    -4.488056    -1.920686
 H    -1.821268    -2.722573    -2.033798
Ir     0.149678    -1.896236     0.288751
 O    -1.698067     0.195548    -1.596696
 C    -3.349096    -1.175882     0.179331
 C    -1.661800     0.991990     1.037811
 O     1.529848     1.001719     1.430677
 C     3.413470    -0.662846     0.321450
 C     1.572687     0.826614    -1.337219
 P     1.650335    -0.168609     0.208975
 P    -1.666667    -0.478335    -0.050153
 C     1.304652    -3.004260     1.231545
 O     1.964814    -3.640818     1.931549
 C    -2.756213     0.862224    -2.140854
 C    -2.904235     2.237086    -1.942176
 H    -2.159947     2.772612    -1.350128
 C    -3.675951     0.163601    -2.926527
 H    -3.523851    -0.904548    -3.093531
 C    -3.998218     2.900066    -2.494426
 H    -4.115632     3.974093    -2.331394
 C    -4.767134     0.834567    -3.472768
 H    -5.489841     0.283279    -4.079074
 C    -4.938737     2.201425    -3.251163
 H    -5.797274     2.723755    -3.678491
 H    -3.531907    -1.818538    -0.697643
 H    -3.244071    -1.872195     1.027372
 C    -4.513750    -0.220017     0.415636
 H    -4.412448     0.245728     1.410589
 H    -4.498548     0.607126    -0.310533
 C    -5.862375    -0.919601     0.322049
 H    -5.903915    -1.748862     1.051535
 H    -5.952836    -1.390414    -0.673878
 C    -7.040920     0.018144     0.541630
 H    -6.946918     0.492550     1.534661
 H    -6.980725     0.842810    -0.190722
 C    -8.390718    -0.671481     0.428938
 H    -9.221783     0.031851     0.589706
 H    -8.490515    -1.479489     1.171485
 H    -8.525595    -1.123621    -0.566929
 H    -0.785513     1.581928     0.731493
 H    -2.560238     1.601028     0.851308
 C    -1.521544     0.618037     2.508342
 H    -2.431415     0.096480     2.855591
 H    -0.693743    -0.105311     2.605917
 C    -1.249803     1.825896     3.392304
 H    -2.082848     2.548286     3.306653
 H    -0.353279     2.346327     3.012731
 C    -1.033859     1.467341     4.855108
 H    -1.927728     0.944995     5.240306
 H    -0.208337     0.737523     4.922598
 C    -0.724924     2.672559     5.728251
 H    -0.566077     2.385100     6.778714
 H    -1.547480     3.405825     5.704890
 H     0.184946     3.189223     5.382422
 C     2.216960     2.175743     1.496952
 C     1.641976     3.346588     0.992372
 H     0.654839     3.298777     0.529200
 C     3.469324     2.227304     2.114863
 H     3.888556     1.312640     2.537231
 C     2.335307     4.551468     1.070903
 H     1.882732     5.460368     0.667154
 C     4.156427     3.437186     2.188376
 H     5.137586     3.469727     2.668199
 C     3.598533     4.601280     1.660534
 H     4.141362     5.546989     1.718909
 H     4.061337     0.227043     0.277810
 H     3.531717    -1.106346     1.324581
 C     3.800524    -1.676028    -0.749989
 H     3.033608    -2.468679    -0.799018
 H     3.792439    -1.192320    -1.742293
 C     5.164041    -2.305958    -0.504000
 H     5.152573    -2.810936     0.478750
 H     5.930298    -1.512688    -0.427822
 C     5.570625    -3.303430    -1.579335
 H     4.796198    -4.087009    -1.653022
 H     5.575949    -2.796169    -2.560594
 C     6.925671    -3.943955    -1.326294
 H     7.191539    -4.659713    -2.118846
 H     6.936122    -4.489108    -0.368807
 H     7.724372    -3.185913    -1.280950
 H     1.309974     0.099733    -2.124564
 H     0.670701     1.453241    -1.238299
 C     2.780905     1.663159    -1.744595
 H     3.183858     2.215272    -0.881550
 H     3.593591     0.999592    -2.084713
 C     2.450255     2.661612    -2.844776
 H     1.632147     3.318996    -2.496741
 H     2.049294     2.126927    -3.724964
 C     3.638468     3.517678    -3.258809
 H     4.029904     4.039100    -2.367181
 H     4.456374     2.860169    -3.603244
 C     3.305128     4.530848    -4.341695
 H     4.182446     5.135131    -4.618041
 H     2.515205     5.223978    -4.009840
 H     2.941715     4.034391    -5.255848
