 104
scf done:    -2308.940662
 C    -2.042542    -2.387338    -1.561833
 H    -2.520601    -3.126404    -0.892419
 H    -2.831168    -1.651016    -1.784304
 C    -1.660747    -3.079615    -2.868119
 H    -0.964519    -3.917769    -2.705942
 H    -2.543734    -3.490131    -3.392685
 H    -1.161637    -2.392292    -3.571411
Ir    -0.387337    -1.477015    -0.547739
 C    -1.100090     1.989488    -1.112039
 C    -3.459609     0.436969    -0.466328
 C    -1.593388     1.027683     1.602426
 C     2.592953    -1.720573     1.328901
 C     2.791614    -0.474254    -1.283332
 C     1.904400     1.023446     0.990460
 P     1.671955    -0.622363     0.171750
 P    -1.641771     0.506026    -0.163863
 C     0.347354    -3.178002    -0.498380
 O     0.758400    -4.247790    -0.375178
 C    -0.633666     3.138198    -0.457704
 H    -0.635886     3.186452     0.631541
 C    -1.066593     1.943088    -2.524531
 C    -1.492211     0.729199    -3.294001
 H    -2.588688     0.654064    -3.370360
 H    -1.138088    -0.194771    -2.802295
 H    -1.094467     0.754040    -4.317560
 C    -0.147037     4.233903    -1.165990
 H     0.218732     5.110507    -0.626515
 C    -0.591860     3.062236    -3.217756
 H    -0.565444     3.026540    -4.309917
 C    -0.133656     4.198205    -2.556924
 H     0.240843     5.050096    -3.129433
 H    -3.607002     0.192916    -1.528707
 H    -3.871387     1.445705    -0.310817
 C    -4.136685    -0.612716     0.409209
 H    -3.495835    -1.508476     0.451245
 H    -4.213502    -0.243321     1.447276
 C    -5.529780    -1.023924    -0.069731
 H    -5.417667    -1.400872    -1.103737
 C    -6.065383    -2.165473     0.785511
 H    -5.381478    -3.028040     0.772942
 H    -7.049067    -2.508038     0.428750
 H    -6.184547    -1.847691     1.835140
 C    -6.502582     0.149603    -0.094838
 H    -7.499287    -0.166854    -0.439408
 H    -6.163479     0.955015    -0.763950
 H    -6.621639     0.580271     0.914208
 H    -0.555091     1.325474     1.807267
 H    -1.741458     0.093324     2.164145
 C    -2.569490     2.107989     2.059454
 H    -2.673212     2.888843     1.288726
 H    -3.576950     1.673948     2.177370
 C    -2.163756     2.776296     3.376120
 H    -1.164757     3.229575     3.220154
 C    -3.134669     3.897622     3.725075
 H    -3.199560     4.641245     2.915450
 H    -2.828851     4.423344     4.642708
 H    -4.148922     3.498654     3.892799
 C    -2.045834     1.774652     4.519568
 H    -1.764722     2.276186     5.458279
 H    -1.288639     1.001739     4.319045
 H    -3.007956     1.262937     4.690703
 C     3.862290    -2.214119     1.000887
 H     4.330743    -1.931248     0.057584
 C     1.994147    -2.116915     2.548090
 C     0.627284    -1.653716     2.957209
 H    -0.070196    -1.707282     2.098919
 H     0.638188    -0.606879     3.303601
 H     0.234888    -2.267230     3.779730
 C     4.549696    -3.075742     1.852156
 H     5.536698    -3.448407     1.568549
 C     2.703145    -2.981694     3.388821
 H     2.239187    -3.294116     4.328431
 C     3.967245    -3.459456     3.055334
 H     4.490860    -4.138514     3.732464
 H     2.879842    -1.484402    -1.715203
 H     3.794104    -0.164576    -0.952281
 C     2.230594     0.485731    -2.323913
 H     1.257680     0.091353    -2.658976
 H     2.012632     1.469347    -1.868231
 C     3.143123     0.699499    -3.534054
 H     3.403070    -0.299156    -3.933067
 C     2.407424     1.464520    -4.627619
 H     1.487517     0.941830    -4.932379
 H     3.036533     1.592506    -5.522243
 H     2.117799     2.466944    -4.272548
 C     4.439342     1.411242    -3.160410
 H     5.084030     1.554367    -4.041443
 H     5.024142     0.851723    -2.414738
 H     4.225590     2.408345    -2.738912
 H     1.442724     0.931048     1.986552
 H     1.291455     1.739858     0.423762
 C     3.336619     1.515537     1.129080
 H     3.975042     0.692590     1.493758
 H     3.730311     1.798380     0.136731
 C     3.498165     2.711619     2.071769
 H     3.151735     2.390528     3.072661
 C     4.968250     3.096732     2.187391
 H     5.581898     2.244190     2.517478
 H     5.114950     3.917158     2.906860
 H     5.361984     3.433470     1.213717
 C     2.651517     3.905973     1.644869
 H     2.821885     4.769569     2.306217
 H     1.575126     3.679154     1.668803
 H     2.900754     4.216425     0.615955
