  96
scf done:    -2603.923388
 C     1.747784    -2.476239    -1.289525
 H     1.681920    -2.779501    -2.348580
 H     2.734140    -1.992597    -1.198903
 C     1.717858    -3.714555    -0.402133
 H     0.776867    -4.276865    -0.514782
 H     2.545910    -4.408459    -0.639332
 H     1.815515    -3.456484     0.664556
Ir     0.108943    -1.191479    -0.756440
 C     2.982177    -0.688031     1.112355
 C     2.897481     0.833258    -1.376552
 C     1.437131     1.794419     0.908343
 C    -2.443622     1.302584    -0.875456
 C    -3.272040    -1.430376    -0.316619
 C    -2.168199     0.176564     1.777140
 P    -1.911853    -0.221584    -0.005634
 P     1.837198     0.238832     0.009343
 C    -0.844457    -2.189989    -1.990949
 O    -1.349875    -2.738009    -2.870696
 C     2.459999    -1.321139     2.249831
 H     1.399875    -1.234245     2.494087
 C     4.324170    -0.895320     0.785015
 H     4.732993    -0.443128    -0.121903
 C     3.284802    -2.093431     3.060661
 H     2.871445    -2.575482     3.949713
 C     5.161016    -1.689244     1.579305
 C     6.586819    -1.923615     1.173261
 H     6.644954    -2.684365     0.377297
 H     7.048625    -1.006547     0.778304
 H     7.194642    -2.279668     2.016997
 C     4.626874    -2.273283     2.730785
 H     5.265990    -2.890099     3.368371
 C     2.581924     0.350157    -2.652926
 H     1.744840    -0.349241    -2.739512
 C     3.942515     1.773679    -1.221421
 C     4.324325     2.410520     0.084796
 H     4.284884     1.711267     0.929016
 H     3.643054     3.240419     0.330878
 H     5.342940     2.819346     0.024715
 C     3.287648     0.760932    -3.777973
 H     3.020718     0.368887    -4.761833
 C     4.644025     2.164548    -2.370544
 H     5.459612     2.884851    -2.261919
 C     4.329832     1.672135    -3.633465
 H     4.899855     2.005514    -4.504276
 C     1.735574     1.948962     2.266945
 H     2.288625     1.165958     2.790120
 C     0.754851     2.820777     0.219218
 C     0.486830     2.762097    -1.253480
 H     0.216928     1.745959    -1.577861
 H     1.383390     3.053054    -1.824046
 H    -0.332029     3.438744    -1.530083
 C     1.341590     3.085762     2.964601
 H     1.579401     3.183105     4.026337
 C     0.363103     3.953283     0.944417
 H    -0.172780     4.747151     0.416968
 C     0.642197     4.090630     2.300765
 H     0.319160     4.986062     2.837271
 C    -2.443322     1.300192    -2.278400
 H    -2.164565     0.393067    -2.820802
 C    -2.731042     2.488725    -0.197179
 H    -2.689500     2.508753     0.894681
 C    -2.769949     2.459121    -2.973333
 H    -2.771994     2.453771    -4.065933
 C    -3.049952     3.666224    -0.885607
 C    -3.377070     4.919691    -0.126913
 H    -4.437239     4.931281     0.176591
 H    -2.777193     4.997341     0.791959
 H    -3.199789     5.819130    -0.733935
 C    -3.072488     3.633662    -2.282969
 H    -3.316210     4.543047    -2.839280
 C    -4.300366    -1.166252    -1.226507
 H    -4.341991    -0.199150    -1.730326
 C    -3.228304    -2.679433     0.345230
 C    -2.148872    -3.034182     1.323793
 H    -2.264817    -2.485257     2.271582
 H    -1.153296    -2.768601     0.916995
 H    -2.160348    -4.109893     1.546351
 C    -5.287639    -2.110407    -1.493206
 H    -6.079467    -1.880945    -2.209974
 C    -4.234745    -3.610405     0.064175
 H    -4.204954    -4.578872     0.570955
 C    -5.256133    -3.339631    -0.841984
 H    -6.022527    -4.092309    -1.041823
 C    -1.013558     0.163296     2.560931
 H    -0.073518    -0.056902     2.059034
 C    -3.416771     0.441716     2.389866
 C    -4.729368     0.443029     1.661972
 H    -5.078740    -0.584933     1.478569
 H    -4.665806     0.933142     0.682164
 H    -5.495053     0.959655     2.257639
 C    -1.041594     0.414515     3.927995
 H    -0.115388     0.404190     4.506808
 C    -3.425604     0.695017     3.767873
 H    -4.383775     0.906302     4.250585
 C    -2.263311     0.683030     4.535282
 H    -2.317780     0.884823     5.607892
