  96
scf done:    -2603.931033
 C    -1.221527     1.012421    -3.136280
 H    -0.806989     0.905708    -4.151448
 H    -2.220903     0.551051    -3.175170
 C    -1.349248     2.493444    -2.802628
 H    -0.365923     2.988074    -2.727222
 H    -1.924256     3.041581    -3.571989
 H    -1.877022     2.656829    -1.848021
Ir     0.053558     0.109106    -1.695627
 C    -1.507769     1.095092     1.440396
 C    -3.382118     0.613416    -0.662863
 C    -2.053277    -1.595878     0.426203
 C     1.636979    -1.746348     0.963696
 C     3.470484    -0.406068    -0.785865
 C     2.012465     1.172254     0.958757
 P     1.753289    -0.282673    -0.130436
 P    -1.698180     0.120577    -0.107727
 C     0.910502    -0.745214    -3.086071
 O     1.315210    -1.427998    -3.926604
 C    -1.621514     0.571878     2.730754
 H    -1.853619    -0.482927     2.879063
 C    -1.200777     2.453669     1.285725
 H    -1.080997     2.862282     0.277853
 C    -1.420392     1.397876     3.836244
 H    -1.492530     0.978657     4.843134
 C    -1.040031     3.302206     2.382924
 C    -0.790196     4.769145     2.194857
 H    -0.516054     4.999431     1.156479
 H    -1.692487     5.353469     2.440313
 H     0.017993     5.126902     2.849399
 C    -1.138256     2.748900     3.665933
 H    -0.991184     3.388858     4.540503
 C    -4.001642    -0.195808    -1.626451
 H    -3.488854    -1.090175    -1.990650
 C    -4.065940     1.737641    -0.197832
 H    -3.618783     2.375531     0.566928
 C    -5.263750     0.120047    -2.111381
 H    -5.727031    -0.527628    -2.861081
 C    -5.332488     2.049880    -0.692165
 H    -5.851743     2.933310    -0.310173
 C    -5.952277     1.254087    -1.658098
 C    -7.305262     1.599275    -2.207033
 H    -7.784468     2.400404    -1.626996
 H    -7.230231     1.942403    -3.252009
 H    -7.975131     0.725640    -2.202316
 C    -3.119904    -1.882188     1.287829
 H    -3.771606    -1.077592     1.638077
 C    -1.291588    -2.653246    -0.077593
 H    -0.492376    -2.424171    -0.788190
 C    -3.367455    -3.191890     1.688559
 H    -4.198217    -3.398584     2.369228
 C    -1.553274    -3.960710     0.316422
 H    -0.938908    -4.771345    -0.083423
 C    -2.578206    -4.251787     1.223169
 C    -2.809584    -5.658135     1.690460
 H    -2.755241    -6.373424     0.856119
 H    -2.037749    -5.955423     2.420389
 H    -3.788633    -5.770359     2.177218
 C     2.120767    -2.981625     0.510639
 H     2.683480    -3.040523    -0.424165
 C     0.894171    -1.704093     2.147040
 H     0.485267    -0.752397     2.490366
 C     1.884114    -4.133990     1.253740
 H     2.274590    -5.092668     0.903128
 C     0.631507    -2.858321     2.892051
 C    -0.238489    -2.791983     4.112873
 H    -0.135523    -1.827827     4.631712
 H    -1.298284    -2.902712     3.826611
 H    -0.002493    -3.595266     4.825758
 C     1.148189    -4.074460     2.436142
 H     0.961531    -4.987933     3.007856
 C     3.779040     0.143579    -2.031570
 H     2.980062     0.574557    -2.639273
 C     4.515117    -0.918091    -0.004345
 H     4.305534    -1.330014     0.985793
 C     5.092445     0.157678    -2.496352
 H     5.308197     0.591897    -3.476414
 C     5.822154    -0.907415    -0.476245
 H     6.621176    -1.316963     0.148532
 C     6.135843    -0.374652    -1.734228
 C     7.544581    -0.397124    -2.249683
 H     7.697034     0.350900    -3.040580
 H     8.270852    -0.202537    -1.446494
 H     7.789825    -1.383648    -2.677564
 C     2.453433     1.119633     2.284406
 H     2.590796     0.157104     2.780976
 C     1.879861     2.422815     0.345474
 H     1.533865     2.470719    -0.692908
 C     2.728554     2.292450     2.980807
 H     3.057881     2.230717     4.022110
 C     2.188528     3.589200     1.037888
 H     2.091717     4.555220     0.534879
 C     2.609106     3.546843     2.370849
 C     2.932064     4.799882     3.130679
 H     2.718796     5.699518     2.536541
 H     2.350255     4.861698     4.064311
 H     3.996466     4.830179     3.414383
