 126
scf done:    -3741.534355
 C    -1.514472    -0.406802    -3.006261
 H    -1.281427    -1.226577    -3.706266
 H    -2.509534    -0.648862    -2.605885
 C    -1.614988     0.888785    -3.797226
 H    -0.651229     1.167868    -4.254324
 H    -2.352500     0.820278    -4.621375
 H    -1.932380     1.731236    -3.161525
Ir     0.004810    -0.300758    -1.481557
 C    -2.616219     1.509397    -0.282230
 C    -3.191472    -1.403960    -0.251713
 C    -1.794205    -0.387104     1.874540
 C     1.901991    -0.839660     1.436301
 C     3.539196    -0.237031    -0.928052
 C     2.290337     1.905832     0.245297
 P     1.884626     0.141531    -0.125162
 P    -1.845724    -0.147066     0.020447
 C     0.991619    -1.367143    -2.576779
 O     1.512094    -2.216544    -3.185135
 C    -1.962892     2.621795     0.281657
 O    -0.870596     2.350557     1.013090
 C    -0.328300     3.349125     1.826570
 H     0.591426     2.928714     2.239946
 H    -0.060852     4.252436     1.257223
 H    -1.028371     3.623447     2.635569
 C    -3.701072     1.759104    -1.143222
 O    -4.286093     0.694448    -1.721742
 C    -5.261812     0.867746    -2.703998
 H    -5.520991    -0.138636    -3.057306
 H    -4.883374     1.462462    -3.553289
 H    -6.172589     1.350014    -2.305163
 C    -4.158551     3.064945    -1.373579
 H    -5.005571     3.243362    -2.034535
 C    -2.437906     3.924740     0.087020
 H    -1.948008     4.771049     0.565986
 C    -3.533239     4.132569    -0.743091
 H    -3.900548     5.148159    -0.910075
 C    -4.463642    -1.175368     0.310523
 O    -4.589266    -0.054097     1.040010
 C    -5.852534     0.410045     1.401905
 H    -5.702410     1.405507     1.838558
 H    -6.518442     0.502550     0.526039
 H    -6.336809    -0.241972     2.150832
 C    -3.009231    -2.597622    -0.980225
 O    -1.783760    -2.873908    -1.437853
 C    -1.595934    -3.835095    -2.433867
 H    -0.556473    -3.726667    -2.769477
 H    -2.268398    -3.667696    -3.292298
 H    -1.750130    -4.862175    -2.053542
 C    -4.083048    -3.478495    -1.196235
 H    -3.932687    -4.389977    -1.773284
 C    -5.532809    -2.053731     0.106841
 H    -6.510212    -1.852174     0.543533
 C    -5.329573    -3.197061    -0.657294
 H    -6.158156    -3.890151    -0.823457
 C    -2.293266     0.438002     2.906316
 O    -2.858705     1.613187     2.575247
 C    -3.471354     2.401382     3.545899
 H    -3.881907     3.272180     3.016499
 H    -4.292289     1.866758     4.057304
 H    -2.757913     2.758420     4.311185
 C    -1.344156    -1.670100     2.247840
 O    -0.960725    -2.465237     1.234684
 C    -1.019119    -3.853662     1.388405
 H    -0.845618    -4.272830     0.390484
 H    -2.012313    -4.172541     1.748722
 H    -0.241354    -4.223723     2.076175
 C    -1.338546    -2.108450     3.575738
 H    -0.969130    -3.102051     3.823110
 C    -2.249081     0.019074     4.245222
 H    -2.622712     0.669647     5.034737
 C    -1.774307    -1.246682     4.568674
 H    -1.758456    -1.566812     5.613399
 C     1.741391    -0.379325     2.751437
 O     1.489898     0.934373     2.938497
 C     1.400457     1.422556     4.244994
 H     1.256302     2.507842     4.166445
 H     0.540667     0.988395     4.783990
 H     2.324192     1.232873     4.819714
 C     2.052376    -2.228801     1.245677
 O     2.132129    -2.619458    -0.034857
 C     2.386405    -3.948239    -0.373611
 H     2.405659    -3.979060    -1.470075
 H     1.595599    -4.624596    -0.005762
 H     3.359661    -4.291084     0.020874
 C     2.159864    -3.116285     2.319474
 H     2.323881    -4.179869     2.147928
 C     1.852172    -1.262836     3.837190
 H     1.736359    -0.902259     4.857201
 C     2.075341    -2.613706     3.613657
 H     2.161352    -3.292448     4.466013
 C     4.618349    -0.997006    -0.423241
 O     4.546451    -1.446182     0.843828
 C     5.520929    -2.305706     1.346965
 H     5.179471    -2.599255     2.348713
 H     5.635860    -3.215183     0.730178
 H     6.507244    -1.813349     1.428795
 C     3.701770     0.312048    -2.217425
 O     2.735661     1.151318    -2.623667
 C     2.509197     1.347034    -3.990368
 H     1.524626     1.822549    -4.074286
 H     2.483235     0.388150    -4.533390
 H     3.272006     2.005768    -4.442538
 C     4.811026     0.023939    -3.021343
 H     4.888706     0.445139    -4.023075
 C     5.738208    -1.278112    -1.219598
 H     6.554075    -1.881636    -0.824518
 C     5.819012    -0.780628    -2.514145
 H     6.693410    -1.010573    -3.127712
 C     1.703487     2.956260    -0.487385
 O     0.704808     2.658992    -1.329404
 C     0.221033     3.643251    -2.198521
 H    -0.526347     3.150335    -2.828424
 H    -0.270128     4.468678    -1.656262
 H     1.026993     4.052328    -2.832717
 C     3.362909     2.221299     1.104112
 O     3.962126     1.175181     1.689268
 C     5.036609     1.364377     2.555332
 H     5.330478     0.364662     2.898890
 H     4.757137     1.976254     3.431794
 H     5.895221     1.839973     2.049020
 C     3.786128     3.540316     1.302187
 H     4.602609     3.769850     1.985741
 C     2.156731     4.277653    -0.325653
 H     1.703501     5.088088    -0.893839
 C     3.174272     4.555611     0.575177
 H     3.509050     5.587864     0.705369
