 106
scf done:    -2831.782097
 C    -1.229114    -2.693706    -1.894728
 H    -0.648172    -3.582649    -2.190999
 H    -1.967171    -3.046115    -1.159245
 C    -1.940221    -2.127998    -3.120508
 H    -1.223911    -1.802706    -3.893220
 H    -2.608988    -2.871156    -3.595867
 H    -2.558378    -1.251792    -2.865681
Ir     0.015024    -1.161109    -1.054031
 C    -2.450311     1.023074     0.475566
 O    -2.937637    -1.666761     0.422842
 O    -1.139476    -0.743898     2.018785
 C     2.291031     0.271283     1.131671
 O     2.637041     0.532968    -1.641485
 O     0.963913     2.085937    -0.489284
 P     1.452217     0.512084    -0.498073
 P    -1.664564    -0.636365     0.469359
 C     1.415395    -2.129832    -1.795963
 O     2.261251    -2.833787    -2.142012
 C    -3.035663     1.658515     1.589528
 O    -3.141592     0.938475     2.725406
 C    -3.708607     1.521123     3.864295
 H    -3.679130     0.756446     4.650763
 H    -3.137085     2.402801     4.203173
 H    -4.757150     1.821847     3.695016
 C    -2.423439     1.720588    -0.749107
 O    -1.952217     1.035397    -1.799392
 C    -1.495423     1.709701    -2.945325
 H    -1.009768     0.946908    -3.565489
 H    -0.756141     2.479607    -2.673955
 H    -2.328590     2.162720    -3.508894
 C    -2.904134     3.031243    -0.852959
 H    -2.878212     3.559187    -1.805318
 C    -3.506578     2.974608     1.494937
 H    -3.951112     3.472924     2.355163
 C    -3.430633     3.642910     0.276108
 H    -3.808095     4.665881     0.204847
 C    -4.278946    -1.402351     0.804097
 H    -4.645820    -2.328275     1.279493
 H    -4.317695    -0.605473     1.560417
 C    -5.126285    -1.058372    -0.403693
 H    -6.129990    -0.759549    -0.051451
 H    -4.692290    -0.166636    -0.888390
 C    -5.234467    -2.195507    -1.409143
 H    -5.771828    -3.040154    -0.942078
 H    -4.220920    -2.563362    -1.630925
 C    -5.924643    -1.789858    -2.699862
 H    -6.945044    -1.414771    -2.516063
 H    -5.364218    -0.989308    -3.209234
 H    -6.000422    -2.635005    -3.400603
 C    -1.366336    -1.876910     2.837683
 H    -0.911575    -1.616409     3.807697
 H    -2.450407    -2.006096     3.002950
 C    -0.756004    -3.154968     2.296588
 H    -1.008134    -3.969236     3.000037
 H    -1.250565    -3.406894     1.342973
 C     0.747118    -3.083216     2.082989
 H     1.252453    -2.878413     3.043181
 H     0.960051    -2.225261     1.422855
 C     1.300318    -4.344205     1.444090
 H     1.071241    -5.243199     2.040196
 H     0.872293    -4.486389     0.439013
 H     2.393600    -4.293781     1.328935
 C     3.315259    -0.693382     1.257016
 O     3.747518    -1.255189     0.117688
 C     4.592319    -2.372686     0.159762
 H     4.648501    -2.749129    -0.868656
 H     5.604081    -2.108015     0.512058
 H     4.178634    -3.165531     0.804031
 C     1.690464     0.734578     2.321695
 O     0.635248     1.555988     2.179034
 C    -0.086786     1.966074     3.303315
 H    -0.872504     2.634607     2.929421
 H     0.546093     2.522342     4.016906
 H    -0.557042     1.106314     3.806112
 C     2.168737     0.345475     3.579320
 H     1.704601     0.719804     4.490220
 C     3.816296    -1.065993     2.510637
 H     4.631049    -1.784075     2.590007
 C     3.240171    -0.535290     3.657563
 H     3.621536    -0.832355     4.637453
 C     3.483103     1.596236    -2.022068
 H     3.733137     1.408489    -3.079622
 H     2.931238     2.547618    -1.998746
 C     4.759427     1.676880    -1.203510
 H     5.220374     2.668108    -1.364051
 H     4.498947     1.628928    -0.131711
 C     5.757761     0.577575    -1.539667
 H     6.159827     0.753928    -2.552997
 H     5.211605    -0.375590    -1.587021
 C     6.897014     0.478988    -0.539962
 H     7.466733     1.420913    -0.480812
 H     6.514866     0.266795     0.472231
 H     7.606116    -0.320186    -0.805623
 C     1.686846     3.173688     0.080087
 H     1.323854     3.326035     1.106078
 H     2.759225     2.934718     0.150605
 C     1.460123     4.427381    -0.737203
 H     2.183041     5.192934    -0.403839
 H     1.696668     4.220656    -1.796179
 C     0.040535     4.959124    -0.617422
 H    -0.133264     5.283319     0.424035
 H    -0.658859     4.126606    -0.781474
 C    -0.272438     6.096921    -1.572833
 H     0.398731     6.957205    -1.416238
 H    -0.155669     5.779494    -2.622150
 H    -1.305681     6.456817    -1.448906
