  80
scf done:    -2518.608257
 C    -1.580844    -2.802573     1.694969
 H    -1.409216    -3.106664     2.740934
 H    -2.562655    -2.296340     1.717061
 C    -1.663605    -4.038356     0.804892
 H    -0.726324    -4.617195     0.826858
 H    -2.476703    -4.721201     1.114927
 H    -1.851311    -3.777417    -0.249503
Ir     0.006905    -1.493562     1.048577
 O    -1.105808     0.930897    -0.964154
 C    -2.768834    -1.199986    -1.100591
 C    -2.789296     0.563533     1.195266
 O     3.121950    -0.505376     1.019649
 C     2.088252    -0.379158    -1.529110
 C     1.541110     1.636015     0.508681
 P     1.669024    -0.171396     0.236746
 P    -1.678636    -0.286246     0.037695
 C     1.162231    -2.486506     2.146532
 O     1.837502    -3.075685     2.862640
 C    -1.817766     2.047148    -1.312637
 C    -1.832733     3.144384    -0.449572
 H    -1.299229     3.079764     0.499821
 C    -2.492609     2.094648    -2.532551
 H    -2.468451     1.225808    -3.191319
 C    -2.529113     4.293073    -0.813021
 H    -2.539790     5.150339    -0.135811
 C    -3.188229     3.250304    -2.885724
 H    -3.716496     3.288740    -3.841425
 C    -3.210915     4.350157    -2.028954
 H    -3.757942     5.252845    -2.310120
 C    -3.977928    -1.769922    -0.687218
 C    -2.299615    -1.446563    -2.398444
 C    -4.242372    -2.805895    -2.854820
 C    -3.036196    -2.241433    -3.271483
 C    -4.709506    -2.569809    -1.563644
 H    -4.349407    -1.593005     0.324028
 H    -5.651601    -3.012263    -1.231917
 H    -4.818180    -3.433794    -3.538822
 H    -2.664453    -2.425103    -4.282432
 H    -1.350557    -1.011088    -2.720886
 C    -3.998912     1.145735     0.792049
 C    -2.356851     0.702556     2.519623
 C    -4.329116     1.996780     3.027530
 C    -3.127109     1.417941     3.433236
 C    -4.764977     1.859407     1.709121
 H    -4.337751     1.050282    -0.242040
 H    -5.704726     2.316330     1.390948
 H    -4.933642     2.557998     3.744491
 H    -2.789080     1.520267     4.466939
 H    -1.411454     0.230542     2.809635
 C     4.341331    -0.050255     0.606053
 C     4.778212     1.235899     0.932773
 H     4.133390     1.887932     1.522709
 C     5.159840    -0.905155    -0.135205
 H     4.792411    -1.905004    -0.372916
 C     6.029893     1.666070     0.495255
 H     6.369593     2.673027     0.749789
 C     6.410417    -0.467283    -0.562019
 H     7.046768    -1.138595    -1.143655
 C     6.847397     0.821669    -0.255564
 H     7.827431     1.164868    -0.594471
 C     1.425411    -1.416170    -2.198272
 C     3.050939     0.373188    -2.219008
 C     2.640074    -0.918244    -4.221505
 C     3.321342     0.102598    -3.558465
 C     1.693421    -1.681234    -3.539326
 H     0.702380    -2.017733    -1.635190
 H     1.166959    -2.491737    -4.049284
 H     2.855676    -1.124727    -5.272851
 H     4.074807     0.691876    -4.086280
 H     3.600961     1.167948    -1.711774
 C     1.410347     2.033147     1.847867
 C     1.515558     2.607856    -0.494688
 C     1.306861     4.348524     1.170272
 C     1.406199     3.958269    -0.163050
 C     1.298407     3.380767     2.177195
 H     1.401738     1.270092     2.631573
 H     1.202402     3.678314     3.224192
 H     1.220356     5.407130     1.426847
 H     1.383800     4.708111    -0.957087
 H     1.559387     2.313085    -1.543748
