 110
scf done:    -3283.794052
 C     1.224379     1.384488    -2.922365
 H     1.172628     2.425741    -3.279608
 H     2.297255     1.168732    -2.798911
 C     0.639787     0.451042    -3.976920
 H    -0.422226     0.670021    -4.177966
 H     1.173928     0.530015    -4.943195
 H     0.705307    -0.607670    -3.671421
Ir     0.051271     1.085304    -1.162014
 C     2.346763    -1.631952    -1.559002
 C     3.326516     0.794430    -0.212796
 C     1.851890    -0.972546     1.240473
 C    -1.501619     0.188186     2.061377
 C    -3.232522     1.389182     0.163421
 C    -2.445187    -1.145202    -0.458563
 P    -1.687403     0.372058     0.240920
 P     1.831455    -0.251288    -0.451217
 C    -0.581538     2.811165    -1.260706
 O    -0.801972     3.945262    -1.159361
 C     1.520304    -2.774161    -1.581553
 O     0.454228    -2.725465    -0.765399
 C    -0.322497    -3.872364    -0.556883
 H    -1.146169    -3.558568     0.092592
 H    -0.746824    -4.258322    -1.496805
 H     0.269155    -4.666555    -0.067094
 C     3.412749    -1.575769    -2.481567
 O     4.121868    -0.439041    -2.525726
 C     5.220214    -0.315476    -3.380960
 H     5.635601     0.683577    -3.198894
 H     4.924013    -0.396414    -4.441270
 H     5.995577    -1.070659    -3.163911
 C     3.694937    -2.666537    -3.316599
 H     4.529502    -2.624761    -4.014938
 C     1.802490    -3.869903    -2.405119
 H     1.169111    -4.755466    -2.392004
 C     2.895528    -3.801233    -3.260896
 H     3.121428    -4.648402    -3.912883
 C     4.513468     0.232210     0.282877
 H     4.562056    -0.840710     0.487455
 C     3.281561     2.166592    -0.432776
 H     2.350407     2.606736    -0.799340
 C     5.627567     1.017269     0.517284
 H     6.557452     0.590299     0.898075
 C     4.395535     2.975113    -0.191097
 H     4.321222     4.047442    -0.373537
 C     5.578683     2.401043     0.278942
 O     6.711159     3.087956     0.538536
 C     6.717130     4.471772     0.334801
 H     5.974614     4.985088     0.971401
 H     7.720354     4.826784     0.603755
 H     6.516535     4.734230    -0.719340
 C     1.670344    -0.048929     2.283345
 H     1.461317     0.996322     2.039652
 C     2.149074    -2.290732     1.571351
 H     2.347925    -3.022880     0.787351
 C     1.767452    -0.436509     3.607069
 H     1.622619     0.277760     4.418063
 C     2.227140    -2.702509     2.905418
 H     2.459617    -3.745089     3.125392
 C     2.025079    -1.775165     3.930670
 O     2.050427    -2.076174     5.248492
 C     2.340260    -3.388671     5.630159
 H     3.339786    -3.708795     5.285569
 H     2.319786    -3.412391     6.727398
 H     1.592278    -4.106489     5.245967
 C    -1.456455    -0.992444     2.823206
 O    -1.488193    -2.165151     2.161196
 C    -1.476582    -3.358754     2.890892
 H    -1.546186    -4.172605     2.158593
 H    -0.539300    -3.473180     3.461463
 H    -2.335766    -3.428188     3.580382
 C    -1.316380     1.414775     2.739391
 O    -1.248038     2.489549     1.940253
 C    -1.173467     3.783218     2.470075
 H    -1.143747     4.459063     1.606740
 H    -0.259267     3.922898     3.072274
 H    -2.057018     4.015893     3.088889
 C    -1.219898     1.481107     4.131823
 H    -1.105313     2.438227     4.639179
 C    -1.370091    -0.933264     4.222578
 H    -1.342548    -1.844942     4.816140
 C    -1.267142     0.296143     4.858752
 H    -1.191208     0.328568     5.948061
 C    -4.113651     1.549144     1.241259
 H    -3.866578     1.124520     2.217234
 C    -3.597624     1.932087    -1.068144
 H    -2.930408     1.807657    -1.925432
 C    -5.303818     2.246885     1.094797
 H    -5.988976     2.382348     1.934113
 C    -4.792611     2.630891    -1.233226
 H    -5.034178     3.043176    -2.213104
 C    -5.654583     2.797393    -0.144866
 O    -6.828493     3.462411    -0.194641
 C    -7.223195     4.034984    -1.408198
 H    -7.350178     3.275820    -2.200640
 H    -8.189751     4.523007    -1.227934
 H    -6.501322     4.793324    -1.760341
 C    -2.083516    -1.492737    -1.766624
 H    -1.280113    -0.934976    -2.259727
 C    -3.493902    -1.840519     0.145508
 H    -3.829114    -1.558725     1.145907
 C    -2.729203    -2.519921    -2.440187
 H    -2.452176    -2.791249    -3.460725
 C    -4.136850    -2.890027    -0.507536
 H    -4.947411    -3.415549    -0.001819
 C    -3.753944    -3.236560    -1.810899
 O    -4.314870    -4.234263    -2.526388
 C    -5.369159    -4.959248    -1.961761
 H    -6.233100    -4.313506    -1.724112
 H    -5.677508    -5.702023    -2.708689
 H    -5.061129    -5.487648    -1.041492
