 118
scf done:    -2840.492036
 C    -1.294262     2.693119    -1.888689
 H    -1.472353     2.580438    -2.973155
 H    -2.285402     2.621823    -1.416999
 C    -0.723561     4.081763    -1.615182
 H     0.210097     4.260674    -2.172408
 H    -1.427677     4.889231    -1.896684
 H    -0.479238     4.220783    -0.548202
Ir     0.007616     1.195135    -1.114682
 C    -2.195307     0.058536     1.595838
 C    -3.460712     0.325260    -0.955464
 C    -1.477564    -1.889318    -0.587835
 C     2.179313    -1.646511    -0.127236
 C     3.370596     0.951903    -0.339310
 C     1.468481     0.444829     1.924832
 P     1.735904     0.147737     0.106664
 P    -1.794904    -0.092470    -0.216606
 C     1.137023     1.646663    -2.482050
 O     1.779978     1.797319    -3.438476
 C    -2.103754    -0.933352     2.592164
 O    -1.580870    -2.124374     2.237350
 C    -1.621992    -3.197717     3.130548
 H    -1.207823    -4.061146     2.594711
 H    -1.012944    -3.010712     4.031228
 H    -2.654976    -3.432253     3.441241
 C    -2.636864     1.335899     2.013095
 O    -2.610815     2.294101     1.069023
 C    -2.943030     3.616956     1.390148
 H    -2.781308     4.201773     0.476769
 H    -2.293280     4.011645     2.189565
 H    -3.998028     3.707980     1.701019
 C    -3.074078     1.585759     3.317635
 H    -3.433681     2.572511     3.604546
 C    -2.530551    -0.689778     3.906780
 H    -2.472504    -1.473516     4.660224
 C    -3.028531     0.559250     4.251502
 H    -3.367410     0.741728     5.273722
 H    -3.475221     1.417562    -0.827822
 C    -4.721387    -0.195570    -0.263792
 H    -4.680692    -0.001590     0.818929
 H    -4.807737    -1.286817    -0.381865
 C    -5.955315     0.470594    -0.869676
 H    -6.869145     0.083034    -0.389554
 H    -5.922866     1.553235    -0.648728
 C    -6.021949     0.269286    -2.380288
 H    -6.898209     0.790938    -2.799158
 H    -6.170904    -0.805529    -2.592438
 C    -4.742712     0.738025    -3.065818
 H    -4.644239     1.832901    -2.956537
 H    -4.790679     0.536947    -4.148549
 C    -3.510175     0.071906    -2.462077
 H    -3.557107    -1.012386    -2.661485
 H    -2.590141     0.447293    -2.936282
 H    -0.704915    -2.155192     0.151314
 C    -0.848840    -2.076300    -1.974147
 H    -0.005431    -1.377268    -2.089320
 H    -1.574972    -1.809981    -2.758637
 C    -0.411204    -3.525123    -2.162641
 H     0.033183    -3.657163    -3.163192
 H     0.387277    -3.754555    -1.438319
 C    -1.559583    -4.504832    -1.955532
 H    -1.204285    -5.543584    -2.058269
 H    -2.319879    -4.355434    -2.743911
 C    -2.210008    -4.293772    -0.593895
 H    -1.480730    -4.545688     0.197819
 H    -3.066976    -4.975088    -0.461520
 C    -2.658068    -2.846006    -0.417921
 H    -3.416138    -2.623565    -1.186969
 H    -3.144324    -2.708811     0.557069
 C     2.125266    -2.684091     0.825121
 O     1.648732    -2.386086     2.054529
 C     1.868630    -3.273575     3.112232
 H     1.534041    -2.760664     4.023301
 H     1.293594    -4.208842     3.000634
 H     2.938186    -3.525508     3.216694
 C     2.606490    -2.006205    -1.429130
 O     2.583518    -1.022949    -2.344550
 C     2.880111    -1.290767    -3.688728
 H     2.715039    -0.348217    -4.223827
 H     2.211819    -2.066826    -4.098779
 H     3.928981    -1.609092    -3.817488
 C     3.039658    -3.298900    -1.741758
 H     3.383953    -3.539952    -2.746016
 C     2.545230    -3.986374     0.515320
 H     2.506599    -4.771889     1.268313
 C     3.012102    -4.278381    -0.758764
 H     3.345539    -5.291724    -0.993343
 H     3.341644     0.872703    -1.436273
 C     4.664475     0.269051     0.104823
 H     4.638374    -0.805949    -0.129661
 H     4.787931     0.347157     1.196703
 C     5.860045     0.925447    -0.583040
 H     6.797516     0.449131    -0.251272
 H     5.787310     0.746316    -1.671233
 C     5.906327     2.427978    -0.324759
 H     6.750644     2.885263    -0.866470
 H     6.097597     2.601590     0.750322
 C     4.594772     3.103875    -0.710820
 H     4.450428     3.036238    -1.803921
 H     4.629562     4.178291    -0.466645
 C     3.404162     2.446702    -0.019156
 H     3.493262     2.600068     1.070045
 H     2.460493     2.919799    -0.336424
 H     0.719955    -0.318789     2.191602
 C     0.813845     1.814026     2.152199
 H    -0.048461     1.937444     1.476310
 H     1.518827     2.618623     1.890526
 C     0.392726     1.965463     3.609989
 H    -0.069184     2.953922     3.769402
 H    -0.387246     1.219822     3.835754
 C     1.563918     1.764237     4.564172
 H     1.225103     1.837019     5.610875
 H     2.301101     2.574760     4.418007
 C     2.245846     0.424214     4.314312
 H     1.541991    -0.390761     4.564888
 H     3.117808     0.302540     4.978351
 C     2.670419     0.285736     2.855183
 H     3.407669     1.074579     2.631599
 H     3.174891    -0.675195     2.687401
