  98
scf done:    -3126.787659
 C    -1.199950     1.698747    -2.897679
 H    -0.755424     2.029256    -3.850168
 H    -1.978729     0.968140    -3.176373
 C    -1.838496     2.899868    -2.208068
 H    -1.084421     3.653914    -1.932620
 H    -2.581322     3.401686    -2.855799
 H    -2.362260     2.620567    -1.277325
Ir     0.278399     0.807688    -1.629835
 C    -3.065496    -0.206737    -0.946298
 O    -1.075041    -1.369033     0.486857
 O    -1.574599     1.087811     1.040431
 C     1.787968    -0.760032     1.311950
 O     3.245010    -0.409582    -0.980439
 O     2.730006     1.577733     0.449644
 P     1.949619     0.258100    -0.202369
 P    -1.402060     0.079240    -0.248260
 C     1.428820     0.763788    -3.105398
 O     2.072252     0.596018    -4.043204
 C    -4.275937     0.395142    -0.558089
 O    -4.256513     1.151511     0.550907
 C    -5.436881     1.760491     0.998509
 H    -5.176036     2.284023     1.926328
 H    -5.822839     2.487862     0.264325
 H    -6.221026     1.015662     1.216747
 C    -3.063367    -1.042012    -2.081720
 O    -1.880793    -1.610125    -2.343592
 C    -1.634187    -2.227846    -3.577181
 H    -0.556273    -2.428086    -3.605601
 H    -1.896388    -1.561450    -4.414975
 H    -2.188491    -3.177553    -3.667153
 C    -4.217567    -1.252711    -2.839462
 H    -4.200950    -1.898256    -3.716551
 C    -5.439017     0.183928    -1.310694
 H    -6.379022     0.650296    -1.020742
 C    -5.392768    -0.629139    -2.438486
 H    -6.305816    -0.784995    -3.018037
 C    -1.791707    -2.530411     0.445640
 C    -3.075137    -2.622029     0.983896
 H    -3.543425    -1.742368     1.427539
 C    -1.176626    -3.645485    -0.124104
 H    -0.179406    -3.514744    -0.545677
 C    -3.743343    -3.845806     0.944677
 H    -4.750149    -3.918589     1.362678
 C    -1.850529    -4.861930    -0.151306
 H    -1.370234    -5.736074    -0.598338
 C    -3.137571    -4.966506     0.380768
 H    -3.666847    -5.921600     0.355016
 C    -2.041211     1.018385     2.314630
 C    -1.950742    -0.124841     3.110281
 H    -1.508509    -1.034811     2.711528
 C    -2.535747     2.210299     2.852684
 H    -2.568923     3.092141     2.210389
 C    -2.386720    -0.069827     4.434548
 H    -2.310344    -0.968660     5.051474
 C    -2.957227     2.253433     4.177417
 H    -3.336835     3.191154     4.591182
 C    -2.893108     1.109576     4.976208
 H    -3.226215     1.142472     6.015684
 C     1.432261    -0.183332     2.549275
 O     1.178254     1.133245     2.554566
 C     0.987385     1.815982     3.765276
 H     0.870387     2.873778     3.499169
 H     0.078761     1.475220     4.288506
 H     1.861203     1.703566     4.429489
 C     1.906424    -2.161674     1.241362
 O     2.117192    -2.683033     0.018044
 C     2.568876    -4.005641    -0.097711
 H     2.787738    -4.165096    -1.160563
 H     1.801097    -4.730986     0.223816
 H     3.491928    -4.163637     0.484312
 C     1.798385    -2.953759     2.388375
 H     1.912410    -4.034954     2.330933
 C     1.327851    -0.973205     3.701392
 H     1.068525    -0.521571     4.657653
 C     1.520799    -2.345475     3.606934
 H     1.432934    -2.961679     4.504954
 C     4.374459    -0.954555    -0.451848
 C     5.024705    -1.908235    -1.239815
 H     4.597054    -2.148789    -2.214956
 C     4.895881    -0.599879     0.795058
 H     4.405015     0.169937     1.389567
 C     6.183238    -2.521144    -0.773921
 H     6.687285    -3.264321    -1.396990
 C     6.052762    -1.229244     1.253303
 H     6.455183    -0.952078     2.230774
 C     6.699584    -2.191546     0.480485
 H     7.607362    -2.675095     0.847888
 C     2.339223     2.868354     0.240148
 C     1.011735     3.278233     0.396071
 H     0.249897     2.558784     0.699129
 C     3.327063     3.789675    -0.108238
 H     4.352702     3.435816    -0.228227
 C     0.685015     4.617379     0.187248
 H    -0.354715     4.933409     0.303184
 C     2.987184     5.126117    -0.304873
 H     3.763900     5.843468    -0.581100
 C     1.664685     5.545749    -0.162374
 H     1.399177     6.592952    -0.323306
