  76
scf done:    -2066.495375
 C     1.455744    -1.861897    -2.418011
 H     1.193798    -1.918296    -3.486279
 H     2.484259    -1.477546    -2.402517
 C     1.426171    -3.266085    -1.822779
 H     0.421683    -3.715322    -1.880058
 H     2.117866    -3.952053    -2.346521
 H     1.717637    -3.279240    -0.757864
Ir     0.046813    -0.704318    -1.297992
 O     1.620266     0.440430     1.597208
 C     3.513817    -0.431738    -0.212173
 C     1.867327     2.092630    -0.397735
 O    -1.759495     1.085115     1.181143
 C    -3.374823     0.071829    -0.820481
 C    -2.007286    -1.504072     1.362217
 P    -1.754260    -0.197537     0.075683
 P     1.784339     0.273207    -0.079217
 C    -0.984535    -0.709884    -2.833267
 O    -1.537092    -0.546913    -3.834981
 C     1.220873    -0.553918     2.420239
 C     1.363696    -1.909850     2.106984
 H     1.806665    -2.210223     1.156166
 C     0.646712    -0.179433     3.640357
 H     0.547412     0.884223     3.860807
 C     0.913805    -2.878496     3.003676
 H     1.021724    -3.934148     2.743881
 C     0.201565    -1.154378     4.525781
 H    -0.255143    -0.852126     5.471258
 C     0.326754    -2.510071     4.211636
 H    -0.027400    -3.272574     4.908284
 H     3.329165    -1.504792    -0.393800
 C     4.269311     0.109228    -1.425338
 H     5.162934    -0.508935    -1.605416
 H     3.667417     0.096097    -2.344126
 H     4.611300     1.140544    -1.259326
 C     4.344281    -0.300045     1.060443
 H     3.867679    -0.779964     1.925627
 H     5.321242    -0.786117     0.905805
 H     4.532619     0.750476     1.321079
 H     0.891236     2.379278     0.019453
 C     2.929108     2.849339     0.389243
 H     2.730600     3.929625     0.305016
 H     2.900830     2.587269     1.455788
 H     3.945786     2.671547     0.008938
 C     1.835454     2.443899    -1.879576
 H     1.064496     1.856248    -2.401355
 H     1.593726     3.512257    -1.992195
 H     2.800069     2.265984    -2.375575
 C    -1.401328     2.355578     0.888540
 C    -0.942559     3.144924     1.949277
 H    -0.896222     2.698502     2.943612
 C    -1.473807     2.898548    -0.399273
 H    -1.808172     2.285622    -1.236806
 C    -0.545072     4.457134     1.718980
 H    -0.179648     5.061388     2.552844
 C    -1.075028     4.217040    -0.616590
 H    -1.127987     4.627671    -1.627632
 C    -0.604790     5.001421     0.434033
 H    -0.290105     6.031718     0.255956
 H    -3.061024     0.651799    -1.705572
 C    -3.944921    -1.246897    -1.335366
 H    -4.735890    -1.045247    -2.074345
 H    -3.183480    -1.867417    -1.829989
 H    -4.393192    -1.836675    -0.522429
 C    -4.413048     0.893659    -0.066531
 H    -4.018714     1.866989     0.255577
 H    -5.274740     1.083782    -0.726642
 H    -4.787232     0.371167     0.823812
 H    -1.134460    -1.300216     2.000703
 C    -3.244428    -1.356980     2.236207
 H    -3.162479    -2.042327     3.095116
 H    -3.339029    -0.335518     2.630053
 H    -4.169261    -1.615002     1.698703
 C    -1.833198    -2.908757     0.796359
 H    -0.925905    -2.978164     0.175905
 H    -1.736282    -3.627364     1.625036
 H    -2.687782    -3.220917     0.179364
