  96
scf done:    -3000.698981
 C    -1.101286     2.942024    -1.700381
 H    -1.585306     2.840455    -2.687774
 H    -1.935373     3.091953    -0.995905
 C    -0.235302     4.199922    -1.707614
 H     0.567214     4.144877    -2.460541
 H    -0.827081     5.107003    -1.929318
 H     0.256687     4.372916    -0.735445
Ir     0.040844     1.190892    -1.234481
 C    -0.632732     0.484561     2.173845
 C    -2.964853     1.570983     0.832201
 C    -2.102980    -1.139505     0.219103
 C     1.100912    -2.156561    -0.552281
 C     3.077388    -0.515396    -1.787396
 C     2.533184     0.005757     0.981693
 P     1.649317    -0.390969    -0.591628
 P    -1.434946     0.559591     0.520019
 C     0.763742     1.380543    -2.927324
 O     1.115615     1.415331    -4.025758
 C    -0.425330    -0.740678     2.824186
 H    -0.830763    -1.662411     2.404933
 C    -0.073366     1.661712     2.721609
 C    -0.252700     3.004538     2.079494
 H    -1.205918     3.466232     2.383680
 H    -0.255221     2.928454     0.979858
 H     0.557320     3.688302     2.366064
 C     0.319377    -0.817990     3.998831
 H     0.466107    -1.784761     4.485724
 C     0.680642     1.558731     3.896103
 H     1.133260     2.464415     4.307929
 C     0.881196     0.338122     4.534165
 H     1.480557     0.290665     5.446166
 H    -3.267276     1.411323     1.876650
 H    -2.664293     2.625849     0.739515
 C    -4.113713     1.260548    -0.087693
 C    -3.933195     1.071850    -1.463908
 H    -2.932311     1.158960    -1.895852
 C    -5.405331     1.136660     0.437206
 H    -5.564038     1.264863     1.510747
 C    -5.008082     0.751870    -2.289668
 H    -4.875367     0.598148    -3.362165
 C    -6.490037     0.823151    -0.375045
 H    -7.496742     0.713028     0.031613
 C    -6.274530     0.628363    -1.733283
 F    -7.305270     0.311529    -2.517930
 H    -2.187047    -1.198867    -0.873926
 H    -1.289416    -1.837522     0.469125
 C    -3.410807    -1.540487     0.842754
 C    -4.395744    -2.111424     0.026236
 H    -4.195302    -2.240459    -1.040000
 C    -3.703951    -1.367355     2.201458
 H    -2.966466    -0.920005     2.869916
 C    -5.634426    -2.488495     0.532553
 H    -6.406901    -2.918603    -0.107124
 C    -4.940395    -1.736850     2.725994
 H    -5.175784    -1.597556     3.782705
 C    -5.893962    -2.290801     1.882387
 F    -7.082534    -2.635407     2.377241
 C     0.270293    -2.428484    -1.654443
 H     0.010276    -1.597232    -2.319218
 C     1.417289    -3.203849     0.341362
 C     2.345969    -3.077426     1.514890
 H     2.025834    -2.300578     2.222015
 H     3.368458    -2.837347     1.184427
 H     2.394675    -4.028500     2.061726
 C    -0.250551    -3.694121    -1.892354
 H    -0.888771    -3.869845    -2.761216
 C     0.849166    -4.464858     0.100502
 H     1.077273    -5.275944     0.797171
 C     0.031616    -4.720534    -0.994701
 H    -0.382728    -5.720274    -1.144483
 H     2.630685    -0.746523    -2.765549
 H     3.495521     0.501166    -1.852402
 C     4.111524    -1.522590    -1.397643
 C     5.219896    -1.153754    -0.623060
 H     5.362600    -0.103074    -0.357317
 C     3.964095    -2.873802    -1.742063
 H     3.112366    -3.184254    -2.351527
 C     6.142810    -2.099928    -0.183741
 H     7.010084    -1.818546     0.416354
 C     4.877276    -3.831938    -1.311620
 H     4.766453    -4.885308    -1.574717
 C     5.953865    -3.432683    -0.528849
 F     6.830041    -4.345413    -0.110025
 H     1.786862    -0.062190     1.786739
 H     3.282843    -0.769401     1.173619
 C     3.214277     1.350729     1.031834
 C     2.725680     2.493230     0.388512
 H     1.819875     2.410160    -0.234218
 C     4.379495     1.479247     1.801572
 H     4.784252     0.601013     2.312381
 C     3.366606     3.723865     0.508564
 H     2.985544     4.611325    -0.000595
 C     5.031453     2.701666     1.937335
 H     5.937470     2.804501     2.537319
 C     4.512621     3.814975     1.286673
 F     5.132407     4.988370     1.409625
