  96
scf done:    -2976.560066
 C    -1.071066    -0.563960    -3.359396
 H    -1.153730    -1.508973    -3.916043
 H    -2.105595    -0.280492    -3.110850
 C    -0.426760     0.517932    -4.217971
 H     0.601861     0.254789    -4.513932
 H    -0.996399     0.686815    -5.150314
 H    -0.385497     1.484852    -3.689783
Ir     0.230098    -0.747604    -1.672300
 O    -1.690370     1.980462    -1.272835
 O    -2.794919    -0.138893    -0.558376
 O    -1.087261     0.924573     0.942091
 O     2.522545    -1.826696     0.679649
 O     3.348360    -0.354223    -1.112537
 O     2.092902     0.575120     0.905437
 P     1.978117    -0.593351    -0.256984
 P    -1.295745     0.526764    -0.627347
 C     0.696221    -2.482936    -2.224336
 O     0.811055    -3.611222    -2.414536
 C    -2.686030     2.780764    -0.755075
 C    -2.383310     3.675187     0.269243
 H    -1.363438     3.717155     0.652679
 C    -3.977070     2.683855    -1.270041
 H    -4.176458     1.971164    -2.071435
 C    -3.396078     4.480055     0.786575
 H    -3.165331     5.179257     1.593670
 C    -4.981231     3.493397    -0.743319
 H    -5.996156     3.420981    -1.141194
 C    -4.695276     4.389945     0.287173
 H    -5.486210     5.020974     0.698623
 C    -3.123397    -1.442591    -0.833025
 C    -2.421599    -2.502802    -0.268869
 H    -1.599839    -2.295940     0.420013
 C    -4.200084    -1.664648    -1.688002
 H    -4.733790    -0.810123    -2.106777
 C    -2.763679    -3.821351    -0.592129
 C    -1.958042    -4.964174    -0.048031
 H    -0.988310    -5.034466    -0.568510
 H    -1.750471    -4.834193     1.024203
 H    -2.476270    -5.923747    -0.181934
 C    -4.559050    -2.974190    -1.988898
 H    -5.402274    -3.163124    -2.657326
 C    -3.841255    -4.043370    -1.455163
 H    -4.121402    -5.068216    -1.711226
 C    -1.801357     0.510480     2.043662
 C    -3.141521     0.853628     2.200890
 H    -3.644932     1.428002     1.422530
 C    -1.122609    -0.218148     3.016582
 H    -0.072191    -0.469558     2.865442
 C    -3.835655     0.463980     3.350135
 C    -5.289827     0.805898     3.498592
 H    -5.513441     1.794061     3.070137
 H    -5.919388     0.071879     2.968477
 H    -5.599769     0.806602     4.553341
 C    -1.811135    -0.598381     4.165462
 H    -1.286948    -1.165842     4.937215
 C    -3.153124    -0.262893     4.332465
 H    -3.681321    -0.568004     5.239637
 C     1.911173    -2.244644     1.834069
 C     0.900255    -3.202075     1.776282
 H     0.586981    -3.586001     0.804379
 C     2.350673    -1.734948     3.055214
 H     3.141989    -0.984112     3.056915
 C     0.325341    -3.654913     2.962077
 H    -0.467326    -4.405558     2.925434
 C     1.771567    -2.200331     4.233869
 H     2.115475    -1.808643     5.194065
 C     0.759558    -3.159934     4.191031
 H     0.309147    -3.524241     5.116914
 C     4.581869    -0.124140    -0.531073
 C     4.996529     1.186833    -0.327201
 H     4.327224     2.004178    -0.604644
 C     5.395468    -1.202045    -0.189680
 H     5.037538    -2.218320    -0.355853
 C     6.250073     1.452124     0.235349
 C     6.695138     2.870448     0.444664
 H     6.949269     3.349963    -0.514855
 H     5.898741     3.473505     0.906647
 H     7.583873     2.923158     1.088893
 C     6.643960    -0.941337     0.366692
 H     7.295363    -1.774201     0.642010
 C     7.066970     0.370433     0.580202
 H     8.048223     0.558657     1.023566
 C     1.749251     1.885766     0.736601
 C     1.583837     2.460405    -0.523153
 H     1.732603     1.860909    -1.425933
 C     1.583772     2.646512     1.894135
 H     1.710070     2.166536     2.865421
 C     1.218594     3.807194    -0.645985
 C     0.939844     4.379743    -2.002760
 H     1.673882     4.035704    -2.746451
 H    -0.053088     4.047791    -2.349386
 H     0.944567     5.478403    -1.990314
 C     1.257717     3.991257     1.772811
 H     1.135216     4.597517     2.673581
 C     1.073544     4.570638     0.515204
 H     0.802760     5.626256     0.434665
