 106
scf done:    -2459.323709
 C    -1.161889    -3.712722    -0.124081
 H    -0.693711    -4.678643     0.123597
 H    -2.070154    -3.672961     0.500551
 C    -1.537756    -3.713549    -1.604084
 H    -0.650566    -3.834893    -2.246268
 H    -2.233918    -4.534552    -1.859497
 H    -2.016047    -2.770465    -1.921327
Ir     0.163355    -2.082856     0.255363
 O    -1.794071     0.108570    -1.398669
 C    -3.309858    -1.278794     0.482172
 C    -1.500702     0.825924     1.240812
 O     1.702793     0.760156     1.350257
 C     3.452896    -0.934770     0.081540
 C     1.538790     0.631722    -1.417090
 P     1.700463    -0.391524     0.104878
 P    -1.637310    -0.611942     0.119082
 C     1.357212    -3.251374     1.066521
 O     2.051684    -3.928026     1.692153
 C    -2.896190     0.799516    -1.813682
 C    -3.016208     2.166412    -1.564098
 H    -2.209240     2.687810    -1.046053
 C    -3.904599     0.133920    -2.514208
 H    -3.782986    -0.928341    -2.735412
 C    -4.164891     2.845408    -1.965738
 H    -4.252888     3.915033    -1.756391
 C    -5.046124     0.824006    -2.906592
 H    -5.834045     0.288829    -3.444110
 C    -5.207644     2.188055    -2.627256
 C    -6.463336     2.910155    -3.021898
 H    -6.348385     3.999173    -2.928985
 H    -7.310410     2.610075    -2.382985
 H    -6.747456     2.685981    -4.061370
 H    -3.586035    -1.889472    -0.393064
 H    -3.148639    -2.002718     1.297419
 C    -4.422794    -0.300118     0.845150
 H    -4.243423     0.103458     1.856201
 H    -4.420893     0.567127     0.167718
 C    -5.801647    -0.942392     0.792980
 H    -5.843977    -1.799036     1.490001
 H    -5.959324    -1.366050    -0.215636
 C    -6.926996     0.033693     1.105234
 H    -6.766839     0.464223     2.109697
 H    -6.863623     0.883683     0.402218
 C    -8.309709    -0.592875     1.030292
 H    -9.100887     0.137829     1.257092
 H    -8.411243    -1.425185     1.745205
 H    -8.509480    -0.998687     0.025352
 H    -0.649191     1.411392     0.864528
 H    -2.402188     1.453135     1.159309
 C    -1.222645     0.410254     2.679956
 H    -2.102649    -0.106668     3.102938
 H    -0.401976    -0.327527     2.675380
 C    -0.842343     1.589899     3.562035
 H    -1.668886     2.324459     3.583206
 H     0.017147     2.109505     3.104005
 C    -0.478945     1.189128     4.984056
 H    -1.335495     0.669376     5.449254
 H     0.336734     0.446331     4.944605
 C    -0.058197     2.366139     5.848992
 H     0.206179     2.048887     6.869217
 H    -0.865514     3.112014     5.931352
 H     0.818796     2.877988     5.420802
 C     2.408629     1.926805     1.350554
 C     1.811012     3.105875     0.894905
 H     0.782243     3.077858     0.531351
 C     3.712343     1.969536     1.845994
 H     4.160510     1.055861     2.240023
 C     2.530132     4.295843     0.890639
 H     2.050331     5.207005     0.522139
 C     4.421422     3.168907     1.835570
 H     5.444486     3.185623     2.221360
 C     3.853754     4.350473     1.347036
 C     4.632091     5.633406     1.301664
 H     5.539101     5.576528     1.919758
 H     4.030336     6.482958     1.658541
 H     4.947749     5.869880     0.271872
 H     4.120816    -0.061876     0.009012
 H     3.627644    -1.400838     1.066024
 C     3.735657    -1.936640    -1.032467
 H     2.932686    -2.694017    -1.057639
 H     3.695923    -1.427889    -2.011335
 C     5.079906    -2.632917    -0.875648
 H     5.096468    -3.162203     0.094147
 H     5.885167    -1.877288    -0.822323
 C     5.382188    -3.620052    -1.994047
 H     4.568423    -4.364646    -2.044492
 H     5.360704    -3.088665    -2.962247
 C     6.716269    -4.329387    -1.828174
 H     6.905921    -5.036496    -2.649889
 H     6.750188    -4.898539    -0.885304
 H     7.551781    -3.610959    -1.807944
 H     1.200692    -0.074365    -2.194434
 H     0.663955     1.280286    -1.243176
 C     2.739117     1.442452    -1.896267
 H     3.236929     1.941920    -1.051125
 H     3.492745     0.765471    -2.332486
 C     2.355992     2.501008    -2.920334
 H     1.589797     3.164168    -2.478074
 H     1.871059     2.022050    -3.790277
 C     3.536019     3.342310    -3.384940
 H     4.008979     3.808586    -2.502046
 H     4.305007     2.679944    -3.820668
 C     3.154620     4.416021    -4.390835
 H     4.027223     5.008477    -4.705291
 H     2.413804     5.113663    -3.967654
 H     2.708189     3.975047    -5.296609
