  96
scf done:    -2976.563762
 C    -0.739886    -1.835145    -3.020240
 H    -0.300605    -2.746559    -3.455071
 H    -1.764632    -2.103612    -2.725849
 C    -0.759642    -0.731039    -4.073578
 H     0.251306    -0.499695    -4.446929
 H    -1.366891    -1.015656    -4.952880
 H    -1.181883     0.210728    -3.684820
Ir     0.363342    -1.117496    -1.338013
 O    -1.891270     1.275688    -0.425221
 O    -2.909398    -1.004269    -0.987727
 O    -1.670942    -0.577555     1.205626
 O     2.412481    -0.813627     1.399923
 O     3.021623     0.691986    -0.438232
 O     0.978122     1.186153     0.984707
 P     1.666036    -0.044376     0.156253
 P    -1.541633    -0.313084    -0.411496
 C     1.619758    -2.461867    -1.763717
 O     2.277690    -3.371427    -1.990426
 C    -2.591392     2.053049     0.480335
 C    -2.030911     2.358340     1.717615
 H    -1.061262     1.940447     1.978614
 C    -3.818302     2.585593     0.096363
 H    -4.231848     2.334093    -0.880326
 C    -2.726506     3.192033     2.589783
 H    -2.287984     3.432630     3.561176
 C    -4.504640     3.417567     0.977772
 H    -5.472682     3.827755     0.681313
 C    -3.965094     3.720547     2.227172
 H    -4.507103     4.372344     2.915880
 C    -4.202204    -0.617976    -0.700419
 C    -4.728724    -0.772977     0.578651
 H    -4.108362    -1.192074     1.370794
 C    -4.959924    -0.099454    -1.759958
 C    -4.347295     0.060743    -3.116637
 H    -3.503532     0.768788    -3.086969
 H    -3.938198    -0.890951    -3.487414
 H    -5.084004     0.433029    -3.840942
 C    -6.040486    -0.376551     0.827822
 H    -6.454516    -0.484893     1.832490
 C    -6.276174     0.279123    -1.481565
 H    -6.887110     0.687742    -2.291093
 C    -6.814639     0.152675    -0.201605
 H    -7.844366     0.463097    -0.011164
 C    -1.406645    -1.773477     1.830462
 C    -1.636524    -3.000393     1.208869
 H    -2.005068    -3.031645     0.182744
 C    -0.932073    -1.692041     3.148660
 C    -0.672717    -0.359103     3.776966
 H    -1.587340     0.252672     3.806391
 H    -0.293918    -0.474256     4.801086
 H     0.067679     0.204250     3.190418
 C    -1.391731    -4.180384     1.909615
 H    -1.567108    -5.140406     1.419495
 C    -0.706678    -2.892836     3.827314
 H    -0.335579    -2.849456     4.854579
 C    -0.931219    -4.129444     3.222479
 H    -0.741168    -5.050769     3.777143
 C     2.958059    -2.066194     1.196833
 C     2.206549    -3.191312     1.523114
 H     1.199801    -3.065044     1.920409
 C     4.244029    -2.178735     0.673283
 H     4.795934    -1.271811     0.420674
 C     2.758360    -4.453531     1.320976
 H     2.169391    -5.339664     1.568468
 C     4.783936    -3.447913     0.475593
 H     5.789503    -3.547032     0.060433
 C     4.043848    -4.585519     0.796401
 H     4.469034    -5.578012     0.632025
 C     3.002070     1.661556    -1.415488
 C     2.118068     1.616926    -2.491770
 H     1.408548     0.782296    -2.570404
 C     3.936343     2.699339    -1.273350
 C     4.879425     2.712088    -0.111489
 H     4.331650     2.754856     0.842157
 H     5.487766     1.794622    -0.085155
 H     5.554730     3.576564    -0.163737
 C     2.137365     2.633850    -3.443590
 H     1.437496     2.597285    -4.281393
 C     3.935220     3.702370    -2.246224
 H     4.652701     4.521879    -2.150783
 C     3.045438     3.682048    -3.320696
 H     3.067228     4.483268    -4.062689
 C     1.638222     2.230078     1.606593
 C     2.421859     1.981367     2.733551
 H     2.545816     0.952721     3.072964
 C     1.443084     3.523524     1.103856
 C     0.613614     3.791092    -0.114981
 H     1.257369     4.080240    -0.961206
 H     0.037811     2.909808    -0.418871
 H    -0.089765     4.616396     0.070082
 C     3.042225     3.042922     3.384828
 H     3.660473     2.851964     4.264741
 C     2.078295     4.569162     1.786349
 H     1.943202     5.588789     1.415235
 C     2.868814     4.342348     2.909045
 H     3.350608     5.182097     3.414865
