  84
scf done:    -2446.786763
 C    -1.228020    -1.583557     2.871346
 H    -0.777149    -1.752178     3.862226
 H    -2.173187    -1.052018     3.063417
 C    -1.514045    -2.929268     2.217004
 H    -0.588489    -3.485704     1.991336
 H    -2.127689    -3.580788     2.866402
 H    -2.073396    -2.819120     1.272689
Ir     0.094860    -0.502363     1.607860
 C    -1.646984    -0.556852    -1.590457
 C    -3.399026    -0.426445     0.666476
 C    -1.892129     1.848688     0.054361
 C     1.805693     1.733280    -0.645771
 C     3.526495    -0.149162     0.671691
 C     1.867138    -1.138891    -1.302526
 P     1.788195     0.058140     0.089874
 P    -1.688371     0.026968     0.152600
 C     1.071700    -0.070282     3.110973
 O     1.567750     0.363397     4.060412
 C    -1.758061     0.273819    -2.708084
 H    -1.891077     1.348847    -2.584874
 C    -1.468474    -1.933558    -1.784252
 H    -1.353196    -2.585148    -0.912928
 C    -1.681007    -0.271006    -3.989522
 H    -1.751111     0.385951    -4.860286
 C    -1.432801    -2.498456    -3.060726
 C    -1.317753    -3.982039    -3.248983
 H    -2.266699    -4.403694    -3.619346
 H    -0.538448    -4.232031    -3.983984
 H    -1.071225    -4.488673    -2.306152
 C    -1.525631    -1.641543    -4.165129
 H    -1.475365    -2.058614    -5.174763
 C    -3.901546     0.189988     1.821253
 C    -4.198909    -1.348633    -0.013595
 C    -5.966457    -1.043430     1.607819
 C    -5.475897    -1.655583     0.457417
 C    -5.176288    -0.115596     2.287121
 H    -3.288169     0.922968     2.352181
 H    -5.554432     0.373095     3.188148
 H    -6.966923    -1.284982     1.974614
 H    -6.091736    -2.376375    -0.085932
 H    -3.832426    -1.825455    -0.924564
 C    -0.997910     2.685040     0.726193
 C    -2.976756     2.411828    -0.633844
 C    -2.212790     4.625460    -0.041484
 C    -3.128536     3.794504    -0.690400
 C    -1.156703     4.068752     0.675851
 H    -0.184510     2.225618     1.294429
 H    -0.446486     4.711414     1.200098
 H    -2.335609     5.710629    -0.083273
 H    -3.974037     4.226088    -1.231731
 H    -3.715393     1.764000    -1.112777
 C     2.427066     2.779677     0.049826
 H     3.016133     2.569894     0.945931
 C     1.032562     2.033250    -1.771172
 H     0.518316     1.229142    -2.300185
 C     2.292277     4.088727    -0.402605
 H     2.789325     4.900009     0.135139
 C     0.871834     3.347036    -2.222811
 C    -0.030963     3.646524    -3.383336
 H    -0.069292     2.807820    -4.093390
 H    -1.058988     3.826443    -3.025288
 H     0.289978     4.546525    -3.927516
 C     1.523320     4.371649    -1.530055
 H     1.415699     5.405267    -1.870058
 C     3.795164    -1.000859     1.746281
 C     4.597652     0.428172    -0.023653
 C     6.168359    -0.660288     1.454357
 C     5.909107     0.179756     0.370734
 C     5.109542    -1.254433     2.136450
 H     2.963658    -1.472359     2.275142
 H     5.303285    -1.918469     2.982065
 H     7.198414    -0.853738     1.763534
 H     6.735326     0.642382    -0.174659
 H     4.405359     1.079302    -0.879657
 C     1.612843    -2.474548    -0.963100
 C     2.282800    -0.832330    -2.600905
 C     2.183212    -3.172852    -3.200790
 C     2.423046    -1.845348    -3.549081
 C     1.783978    -3.486743    -1.901863
 H     1.285234    -2.708499     0.055899
 H     1.598834    -4.525970    -1.619898
 H     2.311796    -3.965487    -3.942084
 H     2.738471    -1.593995    -4.564616
 H     2.508997     0.199387    -2.876998
