 104
scf done:    -2308.941990
 C     0.622800     3.188660    -0.245155
 H     1.217723     3.804745    -0.938136
 H    -0.402332     3.582936    -0.328054
 C     1.146998     3.399186     1.172334
 H     2.192327     3.065223     1.274156
 H     1.115807     4.461604     1.480020
 H     0.567565     2.833398     1.922776
Ir     0.794356     1.106261    -0.683339
 C    -1.398864    -0.066117     1.984474
 C    -2.435359     2.132244     0.472947
 C    -2.299349    -0.483993    -0.721105
 C     0.393637    -2.414056    -1.429245
 C     3.049906    -1.461684    -1.526092
 C     1.740157    -1.733726     1.056464
 P     1.452665    -1.126109    -0.659745
 P    -1.312397     0.678733     0.304175
 C     1.917386     1.532366    -2.081059
 O     2.502890     1.769591    -3.050916
 C    -1.601209    -1.437261     2.180842
 H    -1.755916    -2.103000     1.328929
 C    -1.196981     0.748742     3.106672
 H    -1.027570     1.820437     2.972547
 C    -1.609526    -1.965462     3.471743
 H    -1.772462    -3.036525     3.615989
 C    -1.202526     0.235285     4.405951
 C    -0.992348     1.131051     5.591736
 H    -0.135440     0.796205     6.196492
 H    -0.802076     2.168317     5.283360
 H    -1.874850     1.130425     6.251103
 C    -1.413603    -1.139907     4.574219
 H    -1.422520    -1.565314     5.581609
 H    -3.318212     1.835655     1.062048
 H    -1.892650     2.888228     1.062393
 C    -2.832543     2.714796    -0.878508
 H    -1.941781     2.767563    -1.528269
 H    -3.536280     2.032696    -1.385331
 C    -3.464565     4.094506    -0.765338
 H    -2.746319     4.779909    -0.279560
 H    -4.339296     4.047242    -0.090813
 C    -3.887749     4.677252    -2.106204
 H    -3.009038     4.714060    -2.773727
 H    -4.602208     3.988336    -2.591279
 C    -4.506125     6.061329    -1.994898
 H    -4.800334     6.456138    -2.979180
 H    -3.799555     6.778463    -1.546942
 H    -5.406370     6.047542    -1.359247
 H    -2.221800    -0.100608    -1.750845
 H    -1.736681    -1.428320    -0.737964
 C    -3.747889    -0.733924    -0.324988
 H    -3.822633    -0.914173     0.760826
 H    -4.358333     0.163188    -0.523168
 C    -4.334727    -1.925166    -1.071365
 H    -3.712442    -2.816229    -0.868321
 H    -4.248265    -1.754669    -2.159779
 C    -5.782689    -2.225993    -0.714542
 H    -5.861724    -2.378170     0.376658
 H    -6.404273    -1.340581    -0.936923
 C    -6.338848    -3.439107    -1.442583
 H    -7.385454    -3.637825    -1.166409
 H    -5.755591    -4.345048    -1.209630
 H    -6.303345    -3.299909    -2.535130
 C    -0.037993    -2.170967    -2.739631
 H     0.292826    -1.265069    -3.256088
 C    -0.077504    -3.550122    -0.761134
 H     0.254176    -3.762971     0.257984
 C    -0.923578    -3.048293    -3.357542
 H    -1.258726    -2.852562    -4.379082
 C    -0.991319    -4.425948    -1.360074
 C    -1.529482    -5.611959    -0.612731
 H    -1.033416    -5.735203     0.360257
 H    -2.610881    -5.504107    -0.427031
 H    -1.392466    -6.543104    -1.183958
 C    -1.406891    -4.159726    -2.669675
 H    -2.122203    -4.830129    -3.154382
 H     3.242941    -2.547256    -1.502781
 H     2.869874    -1.192190    -2.580567
 C     4.232338    -0.672697    -0.979082
 H     3.907397     0.354051    -0.735332
 H     4.566443    -1.119746    -0.026805
 C     5.403261    -0.607125    -1.949197
 H     5.063597    -0.119691    -2.880689
 H     5.709131    -1.630535    -2.234564
 C     6.603708     0.147051    -1.395257
 H     6.284100     1.163168    -1.104220
 H     6.939363    -0.339398    -0.461877
 C     7.764307     0.235933    -2.372842
 H     8.615297     0.787971    -1.945701
 H     7.464946     0.751141    -3.299650
 H     8.126068    -0.765709    -2.656621
 H     0.766454    -2.083510     1.432589
 H     2.414446    -2.607385     1.038290
 C     2.245550    -0.644598     1.996128
 H     3.252315    -0.310478     1.697283
 H     1.597073     0.242397     1.881573
 C     2.252368    -1.083873     3.451820
 H     2.953854    -1.928478     3.584547
 H     1.252627    -1.473659     3.711558
 C     2.610577     0.034944     4.418539
 H     3.597919     0.451720     4.151926
 H     1.892012     0.862366     4.282655
 C     2.615415    -0.410027     5.871765
 H     2.839431     0.423096     6.555465
 H     3.367486    -1.195972     6.047964
 H     1.637239    -0.828595     6.160739
