 108
scf done:    -2761.065422
 C    -1.389109     1.949323    -2.751209
 H    -1.392034     1.690797    -3.823720
 H    -2.437412     1.812705    -2.432080
 C    -1.011751     3.416917    -2.579325
 H    -0.004377     3.622388    -2.977342
 H    -1.712860     4.091784    -3.105056
 H    -1.007109     3.719211    -1.519797
Ir    -0.018169     0.707208    -1.658217
 C    -2.374001     2.127672     0.405920
 C    -3.287832    -0.455137    -0.877888
 C    -1.515192    -0.462115     1.412950
 C     1.394899    -2.015514     0.211918
 C     3.274774    -0.350919    -1.212211
 C     2.045655     0.677716     1.218677
 P     1.632632    -0.258594    -0.320567
 P    -1.834394     0.450142    -0.163558
 C     1.028289     0.705639    -3.186521
 O     1.602406     0.633265    -4.185374
 C    -1.362494     2.752140     1.152758
 H    -0.424257     2.224803     1.332369
 C    -3.556470     2.847220     0.126663
 C    -4.720912     2.316980    -0.662467
 H    -5.202459     1.460679    -0.168022
 H    -4.424241     1.996303    -1.670671
 H    -5.483505     3.098383    -0.778700
 C    -1.489185     4.045443     1.641652
 H    -0.666823     4.491409     2.204716
 C    -3.662597     4.153592     0.628317
 H    -4.575781     4.714882     0.413271
 C    -2.656348     4.754576     1.375852
 H    -2.782770     5.776911     1.739556
 H    -4.116833    -0.336213    -0.168210
 H    -3.548566     0.077984    -1.800215
 C    -3.088672    -1.922127    -1.154350
 C    -3.464663    -2.851185    -0.176631
 H    -3.854715    -2.487535     0.776285
 C    -2.630844    -2.388495    -2.406145
 C    -2.248586    -1.444186    -3.501559
 H    -1.425937    -0.779654    -3.171716
 H    -3.086892    -0.786891    -3.785490
 H    -1.925983    -1.986151    -4.400635
 C    -3.374439    -4.222196    -0.399558
 H    -3.675897    -4.921565     0.383697
 C    -2.559784    -3.770882    -2.616915
 H    -2.217327    -4.132416    -3.590560
 C    -2.921478    -4.685704    -1.631096
 H    -2.857628    -5.758422    -1.830469
 H    -0.994464    -1.370709     1.079996
 H    -0.750005     0.134282     1.936649
 C    -2.636080    -0.811543     2.355227
 C    -3.706334     0.059658     2.584850
 H    -3.725765     1.025824     2.078327
 C    -2.595396    -2.044108     3.045387
 C    -1.461514    -3.008362     2.855878
 H    -0.490027    -2.555686     3.108047
 H    -1.383914    -3.351544     1.811042
 H    -1.590582    -3.896615     3.489176
 C    -4.743407    -0.276164     3.452384
 H    -5.568195     0.423029     3.608693
 C    -3.645414    -2.364674     3.912174
 H    -3.616681    -3.321875     4.440214
 C    -4.717463    -1.498904     4.115647
 H    -5.525307    -1.778500     4.796031
 C     0.634014    -2.723930    -0.733905
 H     0.208203    -2.161480    -1.572226
 C     1.917247    -2.709769     1.331008
 C     2.734113    -2.095850     2.433815
 H     2.152923    -1.375365     3.028384
 H     3.625211    -1.580147     2.049883
 H     3.082621    -2.878687     3.120166
 C     0.402439    -4.090482    -0.621024
 H    -0.196132    -4.601683    -1.375390
 C     1.655428    -4.083837     1.428652
 H     2.055110    -4.625274     2.290296
 C     0.920144    -4.776143     0.472308
 H     0.745998    -5.848562     0.589087
 H     3.043434    -0.910982    -2.130533
 H     3.494155     0.682005    -1.520294
 C     4.405192    -0.991287    -0.470484
 C     4.500332    -2.389714    -0.463546
 H     3.776603    -2.970195    -1.040684
 C     5.360414    -0.232757     0.242345
 C     5.392525     1.267979     0.175216
 H     4.459064     1.739756     0.513963
 H     5.557792     1.612632    -0.858812
 H     6.209716     1.668242     0.790707
 C     5.478941    -3.048044     0.273931
 H     5.523095    -4.139497     0.269441
 C     6.333772    -0.913109     0.984552
 H     7.072640    -0.329335     1.540587
 C     6.392132    -2.304500     1.017293
 H     7.163181    -2.804610     1.608223
 H     1.295359     0.368217     1.964554
 H     3.000386     0.290889     1.602784
 C     2.113878     2.184045     1.168664
 C     1.898569     2.927586     0.005030
 H     1.611550     2.404551    -0.917198
 C     2.415998     2.863524     2.370735
 C     2.663296     2.104161     3.640945
 H     3.511582     1.407116     3.538700
 H     1.791068     1.494065     3.929226
 H     2.885105     2.784294     4.474381
 C     1.969450     4.318791     0.011695
 H     1.779145     4.870977    -0.911162
 C     2.485740     4.259878     2.360116
 H     2.719573     4.783218     3.291529
 C     2.266447     4.989962     1.193078
 H     2.324862     6.080915     1.211759
