 118
scf done:    -3512.644469
 C    -1.919840    -1.024454    -2.920903
 H    -1.453544    -1.589634    -3.748006
 H    -2.600587    -1.735229    -2.429023
 C    -2.711021     0.141019    -3.503227
 H    -3.532863    -0.197603    -4.161647
 H    -3.157487     0.766807    -2.715818
 H    -2.066490     0.804942    -4.102568
Ir    -0.377186    -0.507276    -1.529465
 O    -2.225777     0.972775     0.959295
 C    -3.782569    -0.789013    -0.344096
 C    -1.887244    -1.515295     1.638038
 O     1.880189    -1.148751     1.027865
 C     3.138351    -0.223309    -1.132694
 C     1.450384     1.601247     0.462359
 P     1.530738    -0.093294    -0.232673
 P    -2.037312    -0.460400     0.146053
 C     0.488869     0.084395    -3.042424
 O     0.927104     0.544187    -4.012104
 C    -1.910407     2.255274     0.660921
 C    -1.252473     2.703408    -0.418564
 H    -0.989005     1.994987    -1.215924
 C    -2.393949     3.171217     1.699851
 H    -3.183681     2.788042     2.350909
 C    -0.628459     4.064750    -0.413642
 H    -0.879792     4.641872    -1.323400
 C    -1.913622     4.416687     1.801633
 H    -2.306876     5.113070     2.549041
 C    -0.776240     4.847984     0.933761
 C    -0.759235     6.352821     0.725672
 H     0.088859     6.664265     0.095784
 H    -0.671551     6.880121     1.689344
 H    -1.685481     6.690919     0.234859
 C    -4.170410    -2.130809    -0.494100
 O    -3.178085    -3.026076    -0.339254
 C    -3.439282    -4.395060    -0.423274
 H    -2.484134    -4.901318    -0.234677
 H    -4.172932    -4.718638     0.335403
 H    -3.805113    -4.679781    -1.425094
 C    -4.735491     0.210616    -0.605158
 O    -4.307032     1.483097    -0.563967
 C    -5.174025     2.531839    -0.880637
 H    -4.581912     3.451354    -0.788875
 H    -6.028480     2.584046    -0.182952
 H    -5.557064     2.447426    -1.912587
 C    -6.057878    -0.131622    -0.921637
 H    -6.799235     0.643021    -1.112858
 C    -5.486518    -2.483777    -0.809333
 H    -5.777251    -3.528242    -0.914792
 C    -6.418149    -1.471214    -1.009427
 H    -7.449287    -1.732604    -1.259310
 C    -2.672367    -1.321284     2.791625
 O    -3.651360    -0.404047     2.714383
 C    -4.491916    -0.191374     3.808386
 H    -5.217504     0.571148     3.497111
 H    -5.038548    -1.107482     4.093853
 H    -3.938765     0.181096     4.689066
 C    -0.943110    -2.559953     1.633700
 O    -0.352920    -2.821432     0.462416
 C     0.648053    -3.797863     0.381293
 H     1.082772    -3.700183    -0.619947
 H     0.226755    -4.810589     0.515092
 H     1.441137    -3.627062     1.123915
 C    -0.694073    -3.306372     2.794106
 H     0.060155    -4.091429     2.799547
 C    -2.435827    -2.075369     3.949793
 H    -3.025915    -1.915556     4.851155
 C    -1.436201    -3.043234     3.938218
 H    -1.245702    -3.624508     4.843948
 C     3.135660    -1.293958     1.548983
 C     3.584241    -0.486235     2.593847
 H     2.917122     0.281136     2.982797
 C     3.978133    -2.281081     1.031967
 H     3.625472    -2.893656     0.200843
 C     4.866680    -0.667429     3.104851
 H     5.208175    -0.025325     3.922386
 C     5.257792    -2.449048     1.551752
 H     5.910104    -3.216383     1.125077
 C     5.729204    -1.645858     2.596639
 C     7.101944    -1.848651     3.171126
 H     7.820184    -2.162453     2.398930
 H     7.098627    -2.631436     3.948605
 H     7.484023    -0.928847     3.637861
 C     4.266923     0.585065    -0.876301
 O     4.178867     1.438290     0.152399
 C     5.290693     2.182089     0.550466
 H     4.974278     2.757392     1.430097
 H     6.134809     1.529310     0.833258
 H     5.622291     2.884105    -0.235001
 C     3.272965    -1.237122    -2.099315
 O     2.273709    -2.138930    -2.169333
 C     2.044890    -2.835921    -3.366315
 H     1.040755    -3.271737    -3.281015
 H     2.783190    -3.642640    -3.518102
 H     2.061679    -2.155463    -4.232843
 C     4.416358    -1.341178    -2.900475
 H     4.489547    -2.115780    -3.663169
 C     5.422054     0.475434    -1.659960
 H     6.281179     1.118018    -1.472670
 C     5.474554    -0.471476    -2.676768
 H     6.375583    -0.550295    -3.290050
 C     1.504142     2.624492    -0.425020
 O     1.950719     2.360056    -1.665074
 C     1.838380     3.296733    -2.705282
 H     2.114253     2.761950    -3.621482
 H     0.807636     3.668742    -2.816494
 H     2.522664     4.149746    -2.560545
 C     0.929797     1.879290     1.807962
 O     0.737781     0.758620     2.534396
 C    -0.000786     0.829594     3.719063
 H    -0.149560    -0.205276     4.052694
 H    -0.982347     1.300536     3.539416
 H     0.533653     1.394558     4.504043
 C     0.649871     3.121929     2.252478
 H     0.294723     3.268767     3.272209
 C     0.913487     3.961148    -0.130377
 H     1.466525     4.761808    -0.641059
 C     0.654313     4.309041     1.353871
 H     1.291477     5.114644     1.762030
