  98
scf done:    -2602.990139
 C    -2.603546    -1.138595    -1.500412
 H    -2.769670    -2.223852    -1.398550
 H    -3.279358    -0.672122    -0.765683
 C    -2.996538    -0.675329    -2.896103
 H    -2.418612    -1.188831    -3.681109
 H    -4.065681    -0.865968    -3.103406
 H    -2.830158     0.403845    -3.033961
Ir    -0.566050    -0.666043    -1.022557
 O    -2.538973     0.819074     1.394391
 O    -2.159808    -1.597960     1.608388
 O    -0.259123    -0.022859     2.218183
 O     2.374312    -0.182597     0.626777
 O     2.604006     0.398069    -1.823802
 O     1.343021     1.887592    -0.310750
 P     1.467315     0.301388    -0.658308
 P    -1.360552    -0.308084     1.064125
 C    -0.146170    -1.955179    -2.305374
 O     0.036527    -2.897462    -2.944436
 C    -2.429422     2.160573     1.124554
 C    -1.326548     2.898473     1.550864
 H    -0.506374     2.392974     2.058270
 C    -3.496724     2.764750     0.441453
 C    -4.652361     1.940897    -0.035474
 H    -5.443895     2.577150    -0.453568
 H    -4.333926     1.231233    -0.815765
 H    -5.080249     1.339676     0.781098
 C    -1.281386     4.270328     1.311539
 H    -0.415697     4.845942     1.647715
 C    -3.427120     4.143464     0.223528
 H    -4.252165     4.632270    -0.301632
 C    -2.335075     4.897823     0.651890
 H    -2.308451     5.973697     0.465919
 C    -3.360212    -1.664687     2.378332
 H    -3.139941    -2.335038     3.225923
 H    -3.612461    -0.670664     2.774296
 C    -4.496993    -2.210393     1.543611
 H    -5.402241    -2.226722     2.176345
 H    -4.704012    -1.500521     0.724795
 C    -4.226781    -3.593880     0.970474
 H    -4.108479    -4.313443     1.800261
 H    -3.257863    -3.571069     0.446554
 C    -5.315432    -4.066169     0.021955
 H    -6.299081    -4.101080     0.518201
 H    -5.404666    -3.388243    -0.842233
 H    -5.103308    -5.073081    -0.367827
 C    -0.451507    -0.299923     3.604115
 H     0.050824     0.518511     4.144687
 H    -1.521837    -0.253197     3.861359
 C     0.154979    -1.637875     3.970380
 H    -0.029288    -1.813785     5.045351
 H    -0.386768    -2.427872     3.422840
 C     1.644186    -1.724314     3.663863
 H     2.178649    -0.946738     4.238699
 H     1.800429    -1.474517     2.602835
 C     2.237445    -3.089228     3.968321
 H     2.122119    -3.357418     5.031468
 H     1.745173    -3.876465     3.374729
 H     3.311598    -3.119674     3.731431
 C     3.582068     0.383371     0.982530
 C     4.750640    -0.147067     0.435454
 H     4.668172    -0.964898    -0.278832
 C     3.626324     1.418700     1.927933
 C     2.385513     1.985448     2.546502
 H     2.116885     2.943318     2.073897
 H     1.536751     1.307609     2.406807
 H     2.538017     2.170183     3.620447
 C     5.991116     0.357665     0.808504
 H     6.901326    -0.063981     0.375924
 C     4.890183     1.905798     2.286687
 H     4.945826     2.709021     3.027057
 C     6.061678     1.394703     1.737360
 H     7.029896     1.798686     2.041768
 C     2.668922    -0.310858    -3.049475
 H     1.677620    -0.723629    -3.299222
 H     2.918205     0.434126    -3.821442
 C     3.723864    -1.396836    -3.006199
 H     3.884241    -1.756127    -4.037683
 H     4.675686    -0.932200    -2.693577
 C     3.388595    -2.574652    -2.099524
 H     2.521374    -3.114020    -2.511513
 H     3.063710    -2.203211    -1.112538
 C     4.553274    -3.534935    -1.921882
 H     4.889102    -3.941742    -2.889380
 H     5.420818    -3.035652    -1.459236
 H     4.279864    -4.385492    -1.279904
 C     1.532349     2.946121    -1.239771
 H     1.333155     3.859042    -0.657279
 H     2.586595     2.963868    -1.559321
 C     0.612793     2.894861    -2.446399
 H     0.787121     3.826927    -3.013606
 H     0.918840     2.073939    -3.117943
 C    -0.865492     2.760575    -2.114823
 H    -1.133817     3.476421    -1.322441
 H    -1.045517     1.752869    -1.684434
 C    -1.767134     2.962056    -3.318871
 H    -1.642356     3.969880    -3.748290
 H    -1.547071     2.233158    -4.115354
 H    -2.827271     2.847711    -3.046548
