 100
scf done:    -2579.135971
 C    -1.188951    -3.686009    -0.028616
 H    -0.723110    -4.644729     0.249222
 H    -2.097774    -3.625447     0.593467
 C    -1.562675    -3.732082    -1.508362
 H    -0.674664    -3.871435    -2.145676
 H    -2.257042    -4.561660    -1.739208
 H    -2.042263    -2.799977    -1.854821
Ir     0.139859    -2.049172     0.305635
 O    -1.804948     0.080272    -1.438157
 C    -3.326226    -1.227103     0.499752
 C    -1.514997     0.906622     1.168330
 O     1.684639     0.811880     1.331077
 C     3.436267    -0.920142     0.114024
 C     1.531992     0.611482    -1.434801
 P     1.685682    -0.371524     0.114127
 P    -1.653460    -0.578295     0.109431
 C     1.322667    -3.196593     1.163859
 O     2.009321    -3.855162     1.816083
 C    -2.895981     0.758975    -1.894717
 C    -3.003896     2.139162    -1.706896
 H    -2.202499     2.672051    -1.192644
 C    -3.896862     0.069872    -2.584310
 H    -3.783659    -1.003138    -2.749537
 C    -4.126441     2.822272    -2.167727
 H    -4.235623     3.899237    -2.028182
 C    -5.021999     0.746789    -3.045413
 H    -5.819653     0.228053    -3.580132
 C    -5.128001     2.115214    -2.822719
 F    -6.206107     2.765126    -3.258299
 H    -3.606408    -1.874095    -0.347861
 H    -3.160184    -1.917701     1.342797
 C    -4.439812    -0.240201     0.833641
 H    -4.223283     0.247422     1.799189
 H    -4.486509     0.568853     0.088397
 C    -5.803852    -0.912085     0.905794
 H    -5.778922    -1.724597     1.654562
 H    -6.014495    -1.402416    -0.062168
 C    -6.932287     0.054929     1.234780
 H    -6.717041     0.548182     2.199325
 H    -6.941478     0.862896     0.481655
 C    -8.298726    -0.608127     1.292052
 H    -9.092358     0.116410     1.529051
 H    -8.328485    -1.397549     2.060229
 H    -8.554739    -1.078172     0.328853
 H    -0.656927     1.470620     0.773650
 H    -2.412254     1.535111     1.054087
 C    -1.250411     0.551202     2.626260
 H    -2.135853     0.055727     3.063091
 H    -0.432733    -0.189017     2.659680
 C    -0.873449     1.765384     3.461629
 H    -1.698790     2.501371     3.448028
 H    -0.010410     2.265004     2.988273
 C    -0.518465     1.422644     4.900847
 H    -1.378683     0.924211     5.382168
 H     0.295658     0.677074     4.896344
 C    -0.099825     2.633458     5.718804
 H     0.158021     2.357830     6.752609
 H    -0.905763     3.383762     5.765919
 H     0.780901     3.125535     5.275311
 C     2.424368     1.955091     1.345403
 C     1.875753     3.147345     0.861919
 H     0.864926     3.142266     0.450886
 C     3.709529     1.960616     1.894750
 H     4.115613     1.033879     2.302868
 C     2.614994     4.326037     0.890927
 H     2.206140     5.264588     0.512526
 C     4.454973     3.136348     1.926148
 H     5.461302     3.160671     2.348125
 C     3.901752     4.304958     1.416543
 F     4.614150     5.430462     1.442569
 H     4.108352    -0.052532     0.017312
 H     3.606199    -1.357918     1.112336
 C     3.719531    -1.956779    -0.967838
 H     2.918004    -2.715999    -0.966944
 H     3.676963    -1.480458    -1.962773
 C     5.065741    -2.644443    -0.790904
 H     5.086277    -3.140467     0.196245
 H     5.869458    -1.885774    -0.765682
 C     5.366847    -3.668302    -1.876135
 H     4.554567    -4.415869    -1.898883
 H     5.341451    -3.170024    -2.861661
 C     6.702967    -4.368701    -1.690164
 H     6.891564    -5.102765    -2.488058
 H     6.740916    -4.905604    -0.728740
 H     7.536948    -3.648306    -1.696973
 H     1.189943    -0.115631    -2.191045
 H     0.660758     1.270378    -1.281685
 C     2.735151     1.398161    -1.942801
 H     3.202050     1.970315    -1.126175
 H     3.509072     0.699675    -2.302430
 C     2.366792     2.360764    -3.062905
 H     1.592086     3.059272    -2.695956
 H     1.895295     1.802258    -3.891835
 C     3.552210     3.157411    -3.588651
 H     4.015659     3.705537    -2.749092
 H     4.326056     2.457752    -3.951267
 C     3.182499     4.130875    -4.695828
 H     4.058963     4.691994    -5.053507
 H     2.436843     4.864755    -4.349638
 H     2.747568     3.605639    -5.561358
