 102
scf done:    -3055.130366
 C    -1.136853    -3.172086    -0.037854
 H    -1.383843    -3.854229     0.790683
 H    -2.101125    -2.902508    -0.494328
 C    -0.256030    -3.888761    -1.056034
 H     0.704566    -4.205577    -0.618716
 H    -0.749027    -4.794527    -1.454749
 H    -0.021024    -3.244332    -1.920280
Ir    -0.028417    -1.468353     0.611652
 O    -0.790954     0.093245    -2.257931
 O    -2.829996    -0.561561    -1.052812
 O    -1.442037     1.408921    -0.238378
 O     1.461097     1.223399     2.128663
 O     3.046850    -0.431093     1.102922
 O     1.721319     1.190941    -0.360584
 P     1.514527     0.146089     0.894764
 P    -1.276129    -0.154831    -0.726854
 C     0.385657    -2.400471     2.202762
 O     0.511443    -2.898514     3.228219
 C    -1.497859     0.823095    -3.199600
 C    -1.424510     2.212128    -3.185198
 H    -0.840027     2.701606    -2.405656
 C    -2.213691     0.117865    -4.175439
 C    -2.246425    -1.379259    -4.164721
 H    -1.228606    -1.797368    -4.131030
 H    -2.770242    -1.753340    -3.271750
 H    -2.754837    -1.768457    -5.056983
 C    -2.101341     2.938856    -4.162514
 H    -2.050911     4.029958    -4.158369
 C    -2.878792     0.875399    -5.144779
 H    -3.444163     0.352817    -5.921145
 C    -2.831994     2.268875    -5.141310
 H    -3.363193     2.832080    -5.911928
 C    -3.886029    -0.806361    -0.206992
 C    -3.720473    -1.143903     1.131171
 H    -2.710918    -1.247325     1.539069
 C    -5.156040    -0.685803    -0.769312
 H    -5.246585    -0.422427    -1.824519
 C    -4.838871    -1.323984     1.951681
 C    -4.644589    -1.624275     3.408304
 H    -3.920612    -2.440007     3.555075
 H    -4.245203    -0.739314     3.930271
 H    -5.588464    -1.908194     3.894061
 C    -6.268257    -0.886452     0.041551
 H    -7.269731    -0.795870    -0.386358
 C    -6.114450    -1.193205     1.393515
 H    -6.995501    -1.335384     2.024248
 C    -2.332463     1.754496     0.762212
 C    -3.587646     2.222610     0.392437
 H    -3.820146     2.313081    -0.670934
 C    -1.972712     1.608974     2.099829
 H    -0.975844     1.250210     2.358710
 C    -4.544694     2.517531     1.368326
 C    -5.929472     2.930161     0.967236
 H    -5.913665     3.622775     0.112804
 H    -6.512095     2.044886     0.662300
 H    -6.464374     3.414804     1.796034
 C    -2.917336     1.924474     3.073530
 H    -2.655075     1.819528     4.129089
 C    -4.190705     2.362647     2.713565
 H    -4.926180     2.589361     3.489775
 C     2.387388     2.245416     2.260447
 C     3.615898     1.967811     2.854798
 H     3.816947     0.951513     3.193538
 C     2.055489     3.528238     1.800951
 C     0.714662     3.820201     1.202617
 H     0.685866     4.839001     0.793412
 H     0.469426     3.109754     0.400999
 H    -0.081661     3.734429     1.958480
 C     4.564392     2.979531     2.982954
 H     5.530354     2.763079     3.444600
 C     3.030816     4.522141     1.940968
 H     2.802020     5.529402     1.582917
 C     4.272406     4.259721     2.516833
 H     5.010401     5.060052     2.606686
 C     3.364944    -1.714686     0.719046
 C     3.242698    -2.107475    -0.611257
 H     2.913933    -1.382263    -1.358803
 C     3.813816    -2.603500     1.692901
 H     3.889940    -2.270683     2.729249
 C     3.564038    -3.414071    -0.995345
 C     3.402650    -3.834144    -2.426474
 H     3.744168    -3.046111    -3.113973
 H     3.965080    -4.752709    -2.644530
 H     2.341794    -4.028457    -2.654346
 C     4.137901    -3.902616     1.313247
 H     4.488736    -4.612207     2.066171
 C     4.012312    -4.306160    -0.015780
 H     4.269409    -5.330071    -0.298583
 C     2.755065     1.263947    -1.262412
 C     4.017647     1.688757    -0.860367
 H     4.184857     1.952167     0.185353
 C     2.489218     0.931704    -2.589898
 H     1.483589     0.608599    -2.862713
 C     5.057158     1.775927    -1.791747
 C     6.427805     2.197667    -1.348409
 H     6.374212     2.951999    -0.549832
 H     6.989136     1.337659    -0.946572
 H     7.012522     2.613779    -2.181152
 C     3.522178     1.027199    -3.519038
 H     3.329882     0.777238    -4.565210
 C     4.793899     1.440660    -3.125192
 H     5.595711     1.510263    -3.864909
