 102
scf done:    -3055.137727
 C    -2.049549    -0.810880    -3.166736
 H    -1.514880    -1.387314    -3.940845
 H    -2.715925    -1.522366    -2.656512
 C    -2.882730     0.279843    -3.830457
 H    -3.636449    -0.142597    -4.519282
 H    -3.424783     0.888285    -3.091167
 H    -2.262778     0.976160    -4.418019
Ir    -0.585347    -0.115914    -1.766189
 O    -2.807840     1.259011     0.316719
 O    -3.591653    -0.910063    -0.506226
 O    -1.848199    -0.757460     1.367167
 O     1.624248    -0.623707     0.809719
 O     2.542470     0.681703    -1.180426
 O     0.941795     1.735490     0.533241
 P     1.124345     0.403849    -0.384025
 P    -2.188669    -0.175450    -0.136948
 C     0.355053     0.499246    -3.273723
 O     0.842252     0.987465    -4.189277
 C    -2.112197     2.303202     0.897636
 C    -1.855049     2.267613     2.263453
 H    -2.184998     1.400330     2.835188
 C    -1.741366     3.386249     0.092974
 C    -2.014045     3.369647    -1.377448
 H    -1.500810     2.511783    -1.850351
 H    -3.088191     3.250141    -1.588137
 H    -1.667791     4.295513    -1.855845
 C    -1.181271     3.330446     2.859275
 H    -0.961489     3.304308     3.928794
 C    -1.082508     4.446569     0.723181
 H    -0.781911     5.308405     0.121430
 C    -0.792110     4.421383     2.085767
 H    -0.257506     5.256485     2.543269
 C    -4.711499    -0.923683     0.312583
 C    -4.765505    -1.807062     1.386473
 H    -3.917205    -2.462260     1.588395
 C    -5.781644    -0.079148    -0.010763
 C    -5.705828     0.843165    -1.186676
 H    -4.894840     1.575023    -1.055180
 H    -5.489540     0.288429    -2.111996
 H    -6.650053     1.387923    -1.318920
 C    -5.908381    -1.850626     2.181708
 H    -5.953053    -2.542564     3.025609
 C    -6.916054    -0.148514     0.804030
 H    -7.765448     0.499427     0.571735
 C    -6.985079    -1.016813     1.891789
 H    -7.885506    -1.045042     2.509463
 C    -1.242645    -1.970218     1.593128
 C    -1.398538    -3.048911     0.724185
 H    -2.005544    -2.945146    -0.177657
 C    -0.489567    -2.076030     2.771273
 C    -0.361979    -0.894011     3.678685
 H    -0.024465    -0.011667     3.116005
 H    -1.333549    -0.630690     4.127150
 H     0.347076    -1.093500     4.493625
 C    -0.774673    -4.261024     1.019138
 H    -0.883589    -5.101961     0.331305
 C     0.121145    -3.302002     3.037370
 H     0.724059    -3.400972     3.943959
 C    -0.012087    -4.389234     2.173712
 H     0.490641    -5.331106     2.400500
 C     2.116388    -1.890950     0.581283
 C     1.692067    -2.663481    -0.495764
 H     0.914979    -2.272537    -1.163055
 C     3.059018    -2.369939     1.503814
 C     3.440193    -1.547398     2.692859
 H     4.244372    -2.030520     3.263995
 H     3.776456    -0.545306     2.391618
 H     2.576036    -1.406274     3.361520
 C     2.252506    -3.921294    -0.704667
 H     1.925126    -4.520046    -1.557644
 C     3.598208    -3.636350     1.271631
 H     4.343684    -4.021481     1.972545
 C     3.214014    -4.407585     0.174958
 H     3.661320    -5.391207     0.015664
 C     3.797447     0.153186    -0.950447
 C     4.568142     0.589724     0.122270
 H     4.175626     1.357148     0.788642
 C     4.277669    -0.794311    -1.868296
 C     3.467502    -1.180427    -3.065247
 H     2.466308    -1.533602    -2.778865
 H     3.319470    -0.319167    -3.735153
 H     3.963191    -1.979932    -3.631591
 C     5.829690     0.036361     0.332100
 H     6.429741     0.372832     1.180569
 C     5.542175    -1.336365    -1.626830
 H     5.928262    -2.089006    -2.319136
 C     6.311984    -0.939683    -0.534352
 H     7.295162    -1.386187    -0.370046
 C     1.918045     2.419971     1.218829
 C     2.236805     2.041414     2.519029
 H     1.726330     1.184587     2.957065
 C     2.530177     3.512360     0.588564
 C     2.170286     3.885151    -0.815659
 H     2.586268     3.159348    -1.531657
 H     1.079633     3.877307    -0.953679
 H     2.555201     4.881842    -1.069844
 C     3.205386     2.752296     3.223085
 H     3.463536     2.455166     4.241987
 C     3.494669     4.211111     1.322302
 H     3.989421     5.066595     0.854817
 C     3.837734     3.839031     2.621315
 H     4.598394     4.403131     3.165556
