  92
scf done:    -2874.136913
 C    -1.538332    -2.279037     2.664479
 H    -1.426352    -2.211932     3.759346
 H    -2.539676    -1.855782     2.467090
 C    -1.506168    -3.740731     2.230079
 H    -0.549054    -4.220024     2.491455
 H    -2.309557    -4.334689     2.704954
 H    -1.630234    -3.850895     1.140251
Ir     0.035016    -1.169005     1.694078
 O    -1.042342     0.380146    -1.065666
 C    -2.602021    -1.768640    -0.573990
 C    -2.845456     0.640685     1.008416
 O     3.111321    -0.078412     1.458122
 C     2.226336    -0.946790    -1.004146
 C     1.496579     1.638964     0.120236
 P     1.696940    -0.130907     0.539104
 P    -1.630814    -0.474469     0.257265
 C     1.145424    -1.623722     3.137336
 O     1.787204    -1.861862     4.058358
 C    -1.768373     1.298804    -1.770481
 C    -2.388864     0.937787    -2.966552
 H    -2.312263    -0.091353    -3.319562
 C    -1.858404     2.610261    -1.298050
 H    -1.368904     2.870209    -0.358426
 C    -3.102126     1.889148    -3.693859
 H    -3.595966     1.634750    -4.633341
 C    -2.569575     3.562031    -2.020178
 H    -2.657890     4.591861    -1.669602
 C    -3.184783     3.188827    -3.210010
 F    -3.869490     4.100204    -3.902975
 C    -2.040612    -2.394898    -1.696327
 H    -1.091101    -2.032567    -2.098509
 C    -3.807140    -2.256746    -0.061670
 H    -4.256906    -1.793214     0.818703
 C    -2.680147    -3.473512    -2.293524
 H    -2.227334    -3.948740    -3.168510
 C    -4.438369    -3.342518    -0.665388
 H    -5.378631    -3.713455    -0.248860
 C    -3.891255    -3.968762    -1.788870
 C    -4.576719    -5.128909    -2.447667
 H    -5.406753    -5.508295    -1.835851
 H    -4.988409    -4.839019    -3.428336
 H    -3.875316    -5.958598    -2.624509
 C    -4.052541     0.981830     0.383592
 H    -4.329637     0.520133    -0.566898
 C    -2.503832     1.257191     2.217432
 H    -1.559426     0.975336     2.696328
 C    -4.895404     1.923255     0.962178
 H    -5.829956     2.187427     0.460007
 C    -3.354023     2.198852     2.787879
 H    -3.075190     2.673006     3.732780
 C    -4.562090     2.547737     2.171867
 C    -5.491604     3.540942     2.803294
 H    -4.949635     4.250814     3.444199
 H    -6.047759     4.111692     2.045572
 H    -6.234978     3.028795     3.436978
 C     4.331972     0.265035     0.955039
 C     4.703527     1.604468     0.811199
 H     4.004445     2.389694     1.100134
 C     5.224541    -0.749322     0.599908
 H     4.912460    -1.787800     0.721904
 C     5.957220     1.926397     0.295754
 H     6.270855     2.964641     0.172948
 C     6.479948    -0.432406     0.090955
 H     7.192173    -1.208623    -0.194367
 C     6.828263     0.904512    -0.062114
 F     8.027902     1.213596    -0.557882
 C     1.643259    -2.189578    -1.277205
 H     0.908501    -2.586740    -0.566994
 C     3.201765    -0.456436    -1.886605
 H     3.698672     0.495461    -1.690323
 C     1.998984    -2.910100    -2.414221
 H     1.528707    -3.878528    -2.606583
 C     3.556649    -1.184559    -3.016478
 H     4.322843    -0.787975    -3.688527
 C     2.957664    -2.418475    -3.306262
 C     3.332923    -3.178130    -4.544064
 H     2.898092    -2.706153    -5.440679
 H     4.423842    -3.197316    -4.687342
 H     2.973044    -4.215777    -4.506513
 C     1.256521     2.497563     1.200851
 H     1.221966     2.085347     2.213533
 C     1.505142     2.175535    -1.170430
 H     1.635872     1.522304    -2.033860
 C     1.064456     3.860874     0.995047
 H     0.881057     4.514441     1.852403
 C     1.314965     3.539677    -1.369257
 H     1.318361     3.936401    -2.388233
 C     1.095311     4.408125    -0.293985
 C     0.856526     5.870240    -0.529399
 H     1.639138     6.306346    -1.169054
 H    -0.105037     6.032325    -1.044120
 H     0.831821     6.434484     0.413195
