  82
scf done:    -2145.058286
 C    -0.308746    -3.492993     0.728056
 H     0.419122    -4.318213     0.769441
 H    -0.759944    -3.463194     1.732271
 C    -1.372040    -3.820274    -0.317668
 H    -0.931363    -3.938899    -1.320581
 H    -1.907465    -4.760799    -0.088761
 H    -2.137826    -3.028762    -0.404484
Ir     0.601298    -1.658062     0.131406
 O    -2.239170     0.006067    -0.163287
 C    -2.351178    -1.316040     2.204021
 C    -0.582899     1.094783     1.916375
 O     1.573120     1.665526    -0.722876
 C     2.847406    -0.296209    -2.193406
 C    -0.054029     0.549441    -2.414787
 P     1.289523     0.068277    -1.233783
 P    -1.185335    -0.437330     1.059537
 C     2.240161    -2.516667     0.102526
 O     3.292013    -2.978140     0.227068
 C    -3.061686     1.026870    -0.514120
 C    -2.668653     2.365276    -0.458405
 H    -1.679099     2.622024    -0.081548
 C    -4.300517     0.662809    -1.075996
 C    -4.654928    -0.784047    -1.234278
 H    -5.629238    -0.898782    -1.727864
 H    -3.893809    -1.308268    -1.833108
 H    -4.696298    -1.306702    -0.266045
 C    -3.533052     3.365049    -0.900359
 H    -3.218087     4.409680    -0.845642
 C    -5.145474     1.686460    -1.510250
 H    -6.113020     1.416294    -1.942214
 C    -4.780419     3.029232    -1.417723
 H    -5.462835     3.807576    -1.765338
 H    -2.539680    -2.241046     1.632798
 C    -1.657755    -1.702567     3.508103
 H    -2.234547    -2.489918     4.017994
 H    -0.640051    -2.085194     3.342107
 H    -1.593745    -0.845704     4.195191
 C    -3.693915    -0.636737     2.451790
 H    -4.162209    -0.273180     1.527874
 H    -4.387261    -1.358620     2.912518
 H    -3.606405     0.214275     3.139525
 H    -0.176448     1.666718     1.064769
 C    -1.602612     1.947616     2.662673
 H    -1.139851     2.913015     2.924295
 H    -2.511092     2.158157     2.083538
 H    -1.900674     1.469009     3.606640
 C     0.603065     0.742770     2.818154
 H     1.281437     0.031218     2.324347
 H     1.173784     1.655124     3.049160
 H     0.268043     0.302090     3.767468
 C     2.382855     2.037229     0.300260
 C     3.329631     1.191127     0.880361
 H     3.434712     0.164281     0.528651
 C     2.216616     3.356646     0.763760
 C     1.203405     4.249944     0.116880
 H     0.182315     3.851338     0.233227
 H     1.227400     5.257051     0.554565
 H     1.378511     4.333279    -0.966863
 C     4.112869     1.646760     1.939429
 H     4.843961     0.972875     2.391683
 C     3.016154     3.785297     1.824177
 H     2.894115     4.808435     2.190754
 C     3.957880     2.943800     2.418103
 H     4.569456     3.304700     3.247639
 H     3.499294    -0.739544    -1.421671
 C     2.583058    -1.384901    -3.229394
 H     3.538038    -1.780563    -3.608777
 H     2.017688    -2.227735    -2.802103
 H     2.020781    -0.994675    -4.090908
 C     3.576887     0.908477    -2.773203
 H     3.788468     1.668841    -2.008767
 H     4.541451     0.580523    -3.193140
 H     3.011136     1.388766    -3.582284
 H    -0.733763     1.060181    -1.714694
 C     0.317220     1.550229    -3.499170
 H    -0.601188     1.926490    -3.977767
 H     0.860358     2.411988    -3.087106
 H     0.932208     1.092604    -4.288573
 C    -0.800885    -0.664668    -2.955765
 H    -1.021847    -1.387865    -2.155656
 H    -1.756491    -0.341730    -3.398577
 H    -0.228999    -1.186496    -3.736619
