  96
scf done:    -3174.928604
 C     1.498558    -3.802311    -1.078410
 H     1.960920    -3.912326    -2.074872
 H     2.350293    -3.646828    -0.394347
 C     0.769108    -5.083384    -0.691349
 H    -0.001944    -5.360526    -1.428202
 H     1.461371    -5.940818    -0.607122
 H     0.251806    -4.992622     0.278651
Ir     0.220866    -2.087853    -1.114204
 O     2.233956    -0.952795     1.401320
 O     3.396283    -1.306567    -0.786642
 O     1.808016     0.702878    -0.506498
 O    -1.504699     0.774852    -1.886533
 O    -2.821910    -1.032618    -0.712253
 O    -1.109212     0.356090     0.613430
 P    -1.283284    -0.450192    -0.803218
 P     1.931108    -0.902658    -0.227688
 C    -0.864742    -2.942763    -2.402221
 O    -1.463549    -3.367785    -3.283273
 C     1.190397    -1.185869     2.273022
 C     0.657763    -2.468778     2.390873
 H     1.067261    -3.280254     1.787346
 C     0.682046    -0.130596     3.025775
 H     1.090899     0.872267     2.893087
 C    -0.391550    -2.699215     3.277674
 H    -0.828997    -3.692471     3.392528
 C    -0.367982    -0.355944     3.910543
 H    -0.798968     0.455564     4.498747
 C    -0.889471    -1.638548     4.023515
 F    -1.907506    -1.856462     4.861705
 C     4.624848    -0.784963    -0.427357
 C     5.192563    -1.077722     0.807562
 H     4.660479    -1.724259     1.505180
 C     5.295249     0.017626    -1.346191
 H     4.833934     0.216325    -2.314426
 C     6.421064    -0.509053     1.138696
 H     6.861927    -0.730052     2.114589
 C     6.517892     0.577100    -0.997716
 H     7.030814     1.223298    -1.715231
 C     7.097322     0.338271     0.255654
 C     8.391892     0.994111     0.639190
 H     9.118613     0.967824    -0.186724
 H     8.849895     0.506334     1.511168
 H     8.233994     2.054554     0.898761
 C     2.757732     1.692720    -0.372268
 C     2.953585     2.533115    -1.463453
 H     2.364514     2.368809    -2.367777
 C     3.473227     1.885920     0.808230
 H     3.308419     1.225332     1.658618
 C     3.906855     3.545304    -1.385702
 H     4.063789     4.197088    -2.249459
 C     4.430121     2.892969     0.861116
 H     5.007858     3.023225     1.780150
 C     4.674994     3.733467    -0.232017
 C     5.750788     4.778188    -0.171790
 H     5.610081     5.549980    -0.941709
 H     6.744165     4.327040    -0.335011
 H     5.777986     5.275183     0.809420
 C    -2.716355     1.255718    -2.325662
 C    -3.195401     2.477373    -1.855323
 H    -2.616308     3.036630    -1.120328
 C    -3.444863     0.524286    -3.264899
 H    -3.055338    -0.431865    -3.618388
 C    -4.413549     2.967263    -2.320816
 H    -4.811564     3.919833    -1.967077
 C    -4.664743     1.008330    -3.727439
 H    -5.256539     0.452990    -4.457048
 C    -5.135716     2.225670    -3.247390
 F    -6.304177     2.691710    -3.688693
 C    -3.706258    -0.862805     0.324005
 C    -4.856355    -0.103190     0.128807
 H    -5.035657     0.360652    -0.842159
 C    -3.453095    -1.458439     1.557556
 H    -2.540520    -2.041265     1.690874
 C    -5.744551     0.069265     1.187708
 H    -6.642422     0.673813     1.032790
 C    -4.343879    -1.265310     2.609155
 H    -4.117344    -1.709485     3.581536
 C    -5.505085    -0.498360     2.445307
 C    -6.475720    -0.317949     3.576314
 H    -5.963280    -0.312956     4.549392
 H    -7.211665    -1.139117     3.600303
 H    -7.038746     0.621679     3.479706
 C    -1.413832     1.658836     0.928741
 C    -2.498627     1.934508     1.757944
 H    -3.121891     1.117450     2.121463
 C    -0.601299     2.691079     0.463890
 H     0.239668     2.454531    -0.185438
 C    -2.776423     3.255651     2.098324
 H    -3.637458     3.465256     2.738977
 C    -0.893972     4.005749     0.816841
 H    -0.255105     4.809116     0.439855
 C    -1.986796     4.315675     1.635590
 C    -2.281701     5.732995     2.032989
 H    -3.358754     5.892917     2.187382
 H    -1.935603     6.446147     1.270935
 H    -1.774843     5.992856     2.977572
