  96
scf done:    -3174.933815
 C     1.823588    -3.329096     0.440618
 H     2.419968    -3.743516    -0.388187
 H     2.536342    -2.766532     1.064424
 C     1.189721    -4.443023     1.263267
 H     0.573364    -5.114511     0.643929
 H     1.956786    -5.067605     1.756893
 H     0.534314    -4.049843     2.057405
Ir     0.275251    -2.044006    -0.247149
 O     1.265724     0.572638     1.637147
 O     3.149849    -0.376301     0.364385
 O     1.340063     0.872478    -0.944992
 O    -2.551599    -0.846821    -1.767746
 O    -2.762428    -1.435847     0.651607
 O    -1.542236     0.732949     0.018272
 P    -1.631197    -0.849874    -0.417590
 P     1.514105    -0.239447     0.234566
 C    -0.206967    -3.383643    -1.482540
 O    -0.398359    -4.100750    -2.358476
 C     1.802267     1.803008     1.951483
 C     1.050924     2.948419     1.701306
 H     0.048496     2.848928     1.283238
 C     3.077575     1.885437     2.505028
 H     3.635682     0.968814     2.698138
 C     1.604946     4.199858     1.949985
 H     1.054416     5.117374     1.736914
 C     3.632861     3.136313     2.758510
 H     4.636869     3.241052     3.173324
 C     2.895955     4.275639     2.458243
 F     3.449983     5.473592     2.654662
 C     3.957289    -1.020924    -0.543515
 C     3.563213    -1.264580    -1.855557
 H     2.575326    -0.950515    -2.198943
 C     5.214345    -1.413914    -0.085485
 H     5.491211    -1.211591     0.950405
 C     4.422234    -1.937045    -2.733785
 C     3.969896    -2.223105    -4.135729
 H     3.708868    -1.293918    -4.666134
 H     4.748697    -2.738522    -4.714365
 H     3.069258    -2.857567    -4.134519
 C     6.073153    -2.066692    -0.961587
 H     7.059971    -2.381388    -0.614015
 C     5.680749    -2.332710    -2.273927
 H     6.361049    -2.855865    -2.950351
 C     1.931195     2.070134    -1.264810
 C     3.193750     2.459236    -0.821363
 H     3.780279     1.792069    -0.192457
 C     1.183397     2.898967    -2.099722
 H     0.219792     2.542545    -2.466620
 C     3.694739     3.722184    -1.151035
 C     5.015030     4.176625    -0.600206
 H     4.863407     4.798195     0.297916
 H     5.644961     3.324127    -0.309941
 H     5.569188     4.784379    -1.330374
 C     1.690684     4.147912    -2.445938
 H     1.109072     4.803083    -3.099033
 C     2.929328     4.565075    -1.965557
 H     3.313764     5.552756    -2.232096
 C    -3.791030    -0.250440    -1.885641
 C    -3.884276     0.981126    -2.529660
 H    -2.982328     1.436068    -2.940858
 C    -4.922972    -0.870364    -1.361577
 H    -4.823592    -1.839598    -0.873818
 C    -5.109729     1.635385    -2.593640
 H    -5.207793     2.617075    -3.059095
 C    -6.152120    -0.220384    -1.427172
 H    -7.055105    -0.667763    -1.008250
 C    -6.224090     1.031585    -2.024218
 F    -7.392804     1.676571    -2.038623
 C    -2.301256    -2.031302     1.807413
 C    -1.343407    -1.398851     2.598878
 H    -0.969650    -0.411238     2.319606
 C    -2.810527    -3.280133     2.155434
 H    -3.550291    -3.756113     1.510027
 C    -0.850624    -2.026284     3.749615
 C     0.204976    -1.345735     4.570112
 H     1.019043    -0.977516     3.927775
 H    -0.207837    -0.470712     5.097909
 H     0.630300    -2.023679     5.322837
 C    -2.340359    -3.893317     3.312676
 H    -2.726778    -4.874929     3.596577
 C    -1.363967    -3.279181     4.097657
 H    -0.989718    -3.783955     4.991707
 C    -2.493061     1.717512     0.165315
 C    -3.721592     1.491895     0.785804
 H    -3.956541     0.498506     1.166909
 C    -2.157052     2.980258    -0.318066
 H    -1.183622     3.130102    -0.787005
 C    -4.662774     2.521056     0.870373
 C    -6.023848     2.262942     1.447388
 H    -6.053960     1.316464     2.004400
 H    -6.335853     3.073203     2.123249
 H    -6.774009     2.201072     0.641875
 C    -3.083081     4.014669    -0.204327
 H    -2.827986     5.007983    -0.581656
 C    -4.329101     3.787497     0.371587
 H    -5.055952     4.601028     0.438343
