 104
scf done:    -2731.481926
 C     1.455984    -1.068039    -3.050814
 H     0.926178    -1.083559    -4.016861
 H     2.390678    -0.522174    -3.252595
 C     1.768927    -2.502542    -2.639509
 H     0.853280    -3.096206    -2.484106
 H     2.356751    -3.030720    -3.412808
 H     2.344336    -2.556661    -1.700582
Ir     0.189291    -0.162263    -1.587308
 O     2.539709    -1.527685     0.672244
 C     3.565906     0.213860    -0.961430
 C     1.847067     1.063350     1.350212
 O    -1.705894     0.695042     1.351131
 C    -3.188131     0.647465    -0.977650
 C    -1.996085    -1.745006     0.416289
 P    -1.648996    -0.037921    -0.184100
 P     1.972460    -0.115761    -0.083220
 C    -0.633616     0.781828    -2.945781
 O    -1.033627     1.532430    -3.729736
 C     1.811437    -2.412479     1.394558
 C     2.094035    -3.772551     1.219242
 H     2.837067    -4.058303     0.473002
 C     0.854827    -2.030453     2.342011
 H     0.600676    -0.979879     2.480556
 C     1.447575    -4.734921     1.987255
 H     1.656509    -5.798331     1.857703
 C     0.210446    -2.992275     3.118728
 H    -0.532813    -2.704489     3.864178
 C     0.511437    -4.332900     2.934014
 F    -0.126279    -5.253043     3.660023
 H     3.607696    -0.688006    -1.599494
 C     4.842331     0.217111    -0.120651
 H     4.851164    -0.639161     0.569288
 H     4.881528     1.133016     0.493252
 C     6.065055     0.185287    -1.035048
 H     6.986959     0.206933    -0.431285
 H     6.075858    -0.773278    -1.584587
 C     6.054353     1.339914    -2.031679
 H     6.918904     1.268174    -2.711383
 H     6.172282     2.290893    -1.480561
 C     4.752938     1.386275    -2.826393
 H     4.686515     0.496399    -3.478284
 H     4.742422     2.261650    -3.495538
 C     3.537401     1.420097    -1.905121
 H     3.560007     2.353476    -1.321444
 H     2.600263     1.434068    -2.481381
 H     0.797548     0.947711     1.676110
 C     2.016649     2.523159     0.917974
 H     1.367450     2.748663     0.057807
 H     3.055797     2.680224     0.585596
 C     1.726161     3.470584     2.077361
 H     1.871220     4.513224     1.752079
 H     0.666105     3.378526     2.359926
 C     2.591548     3.159433     3.291493
 H     2.327967     3.825720     4.128669
 H     3.651432     3.363282     3.052817
 C     2.447147     1.699616     3.703901
 H     1.412475     1.518126     4.048277
 H     3.104845     1.469826     4.557800
 C     2.760776     0.760612     2.543136
 H     3.811739     0.896032     2.246753
 H     2.669572    -0.286187     2.863286
 C    -1.674797     2.038838     1.539712
 C    -1.963447     2.501741     2.828582
 H    -2.180161     1.770502     3.609316
 C    -1.388116     2.958390     0.524590
 H    -1.118111     2.604278    -0.472514
 C    -1.988880     3.866231     3.097527
 H    -2.217594     4.243292     4.095906
 C    -1.419348     4.325783     0.791408
 H    -1.199607     5.055346     0.010008
 C    -1.723508     4.766924     2.071587
 F    -1.754557     6.075819     2.326131
 H    -2.818694     1.567174    -1.466699
 C    -4.341153     1.061469    -0.060832
 H    -3.988717     1.720224     0.744986
 H    -4.773246     0.173415     0.425837
 C    -5.421265     1.772861    -0.873129
 H    -6.259503     2.053710    -0.215159
 H    -5.006116     2.718325    -1.266548
 C    -5.918353     0.917638    -2.033331
 H    -6.660075     1.473366    -2.629478
 H    -6.444924     0.033514    -1.629707
 C    -4.767912     0.449162    -2.917588
 H    -4.309927     1.315812    -3.426623
 H    -5.138902    -0.217722    -3.712462
 C    -3.695351    -0.263622    -2.100685
 H    -4.125273    -1.179628    -1.661149
 H    -2.865493    -0.583416    -2.750004
 H    -1.183630    -1.868712     1.150934
 C    -1.750083    -2.787859    -0.678267
 H    -0.770834    -2.599098    -1.152527
 H    -2.503713    -2.686404    -1.476005
 C    -1.802808    -4.199208    -0.105337
 H    -1.670403    -4.935057    -0.914761
 H    -0.952475    -4.337129     0.583230
 C    -3.107798    -4.454529     0.641105
 H    -3.104879    -5.464164     1.082539
 H    -3.948677    -4.430381    -0.076255
 C    -3.343605    -3.406322     1.723478
 H    -2.561292    -3.507410     2.495604
 H    -4.306299    -3.584115     2.229677
 C    -3.311503    -1.990482     1.151024
 H    -4.157882    -1.871718     0.453633
 H    -3.444776    -1.243445     1.948429
