  96
scf done:    -3174.792915
 C    -1.566064    -1.366914     3.232707
 H    -1.491930    -0.969844     4.258942
 H    -2.552574    -1.019387     2.876016
 C    -1.546377    -2.891830     3.268294
 H    -0.608355    -3.274858     3.701503
 H    -2.377513    -3.306373     3.869200
 H    -1.633268    -3.329408     2.260193
Ir     0.054386    -0.603701     2.033050
 O    -0.882216    -0.056575    -1.129086
 C    -2.518288    -1.890982    -0.017878
 C    -2.757486     0.901226     0.667999
 O     3.120469     0.453968     1.610881
 C     2.375835    -1.139421    -0.513521
 C     1.544348     1.637190    -0.249341
 P     1.756290     0.081418     0.684862
 P    -1.546664    -0.407857     0.375645
 C     1.121998    -0.646999     3.574136
 O     1.743425    -0.641011     4.539275
 C    -1.564585     0.557307    -2.141499
 C    -1.668797     1.950146    -2.152618
 H    -1.230099     2.519500    -1.332401
 C    -2.124775    -0.196898    -3.172895
 H    -2.039119    -1.283801    -3.148506
 C    -2.326046     2.591800    -3.196156
 H    -2.412312     3.679129    -3.228671
 C    -2.787919     0.441686    -4.219330
 H    -3.233298    -0.123255    -5.040119
 C    -2.880511     1.828018    -4.217016
 F    -3.514233     2.440022    -5.218672
 C    -3.770363    -2.156149     0.556686
 H    -4.247061    -1.410900     1.196684
 C    -1.928979    -2.873546    -0.819681
 H    -0.948241    -2.688231    -1.265539
 C    -4.413291    -3.361998     0.325691
 H    -5.387228    -3.579205     0.767627
 C    -2.567648    -4.086748    -1.062741
 H    -2.081099    -4.827960    -1.697097
 C    -3.819469    -4.338959    -0.485652
 O    -4.516803    -5.476047    -0.654491
 C    -3.968895    -6.499046    -1.438432
 H    -3.011696    -6.863413    -1.025836
 H    -4.693921    -7.322502    -1.431964
 H    -3.806937    -6.175047    -2.481673
 C    -3.927407     1.055419    -0.096838
 H    -4.174630     0.329472    -0.874915
 C    -2.463999     1.849885     1.651412
 H    -1.555585     1.711213     2.248797
 C    -4.771256     2.130158     0.119610
 H    -5.680578     2.267386    -0.467921
 C    -3.306226     2.935131     1.878362
 H    -3.053682     3.652634     2.659050
 C    -4.466728     3.081304     1.107539
 O    -5.342811     4.090201     1.243618
 C    -5.108682     5.068155     2.219957
 H    -4.161860     5.607080     2.040708
 H    -5.940551     5.780570     2.156032
 H    -5.084992     4.635659     3.235221
 C     4.355092     0.680643     1.079392
 C     4.697844     1.929229     0.552748
 H     3.963760     2.735327     0.562251
 C     5.292383    -0.355605     1.083244
 H     5.002348    -1.321378     1.500191
 C     5.966971     2.132797     0.015191
 H     6.258039     3.097843    -0.403601
 C     6.563142    -0.154861     0.553670
 H     7.309469    -0.951159     0.544276
 C     6.882596     1.087469     0.018287
 F     8.097379     1.282788    -0.498275
 C     3.397873    -0.919774    -1.456151
 H     3.883941     0.054728    -1.530049
 C     1.812828    -2.416749    -0.435868
 H     1.042151    -2.596273     0.323216
 C     3.813876    -1.936790    -2.299158
 H     4.607518    -1.777102    -3.031195
 C     2.217838    -3.447698    -1.280982
 H     1.752495    -4.429173    -1.186613
 C     3.224022    -3.208402    -2.224507
 O     3.690622    -4.129054    -3.086289
 C     3.152348    -5.421624    -3.054538
 H     2.070426    -5.420629    -3.276006
 H     3.672524    -5.998004    -3.829832
 H     3.314145    -5.909555    -2.077433
 C     1.665526     1.788426    -1.637102
 H     1.888117     0.924625    -2.264399
 C     1.183921     2.755615     0.509537
 H     1.058532     2.646053     1.590865
 C     1.472997     3.023354    -2.238150
 H     1.554614     3.145797    -3.319499
 C     0.982033     4.001750    -0.080521
 H     0.701377     4.849391     0.544927
 C     1.133153     4.142593    -1.466905
 O     0.948674     5.295823    -2.137078
 C     0.592195     6.444956    -1.420967
 H     1.361145     6.721923    -0.678417
 H     0.498752     7.256178    -2.153880
 H    -0.374333     6.321169    -0.900780
