  98
scf done:    -2754.315414
 C    -1.302327    -0.751978    -2.990099
 H    -0.992600    -1.689601    -3.482324
 H    -2.320172    -0.943559    -2.616194
 C    -1.346549     0.372938    -4.018510
 H    -0.373241     0.525474    -4.512376
 H    -2.086985     0.169154    -4.813556
 H    -1.625631     1.339685    -3.565748
Ir     0.007553    -0.243245    -1.375710
 O    -2.313974    -0.080638     1.184618
 C    -2.896139    -2.110691    -0.501948
 C    -0.733794    -2.241830     1.377838
 O     2.354222     0.222181     1.209681
 C     2.252547     2.291345    -0.590095
 C     0.350277     1.942710     1.447820
 P     1.249195     0.952217     0.185554
 P    -1.499084    -1.120283     0.157745
 C     1.374521    -0.428709    -2.626535
 O     2.209117    -0.730478    -3.362930
 C    -2.840485     1.120557     0.804724
 C    -2.780705     1.622079    -0.495851
 H    -2.281679     1.054914    -1.287560
 C    -3.502157     1.847952     1.795279
 H    -3.544519     1.440067     2.806212
 C    -3.352904     2.859970    -0.783197
 H    -3.290642     3.240672    -1.806428
 C    -4.075784     3.074492     1.486782
 H    -4.584865     3.634785     2.276230
 C    -4.005334     3.613372     0.195450
 C    -4.591318     4.960869    -0.112363
 H    -3.949791     5.771759     0.272488
 H    -5.582148     5.086949     0.350037
 H    -4.700453     5.114824    -1.195296
 C    -4.205815    -1.638275    -0.351159
 H    -4.391144    -0.710193     0.190724
 C    -2.656336    -3.311731    -1.204175
 C    -1.280161    -3.876610    -1.394208
 H    -0.933683    -4.390616    -0.483699
 H    -0.545983    -3.086393    -1.618891
 H    -1.269047    -4.602687    -2.218603
 C    -5.284547    -2.339234    -0.882816
 H    -6.298374    -1.952935    -0.756433
 C    -3.758151    -3.998147    -1.726394
 H    -3.581779    -4.928133    -2.273682
 C    -5.058488    -3.526336    -1.573061
 H    -5.895008    -4.085995    -1.998370
 C     0.587866    -2.616452     1.105691
 H     1.076738    -2.187603     0.224173
 C    -1.404488    -2.771781     2.504541
 C    -2.818327    -2.430516     2.869028
 H    -3.504919    -2.606384     2.028432
 H    -2.912420    -1.368035     3.132694
 H    -3.152170    -3.038245     3.720804
 C     1.267372    -3.511321     1.925231
 H     2.296040    -3.788007     1.688594
 C    -0.690728    -3.654650     3.323596
 H    -1.190951    -4.066328     4.204323
 C     0.622701    -4.026477     3.045351
 H     1.139838    -4.725191     3.707818
 C     3.367100    -0.603125     0.838081
 C     3.907862    -1.421614     1.835459
 H     3.482993    -1.374522     2.839392
 C     3.903918    -0.641094    -0.447707
 H     3.527865     0.021808    -1.225392
 C     4.956743    -2.280937     1.534799
 H     5.368926    -2.913221     2.326782
 C     4.947543    -1.521022    -0.734279
 H     5.346092    -1.544548    -1.751960
 C     5.492388    -2.358997     0.240699
 C     6.604601    -3.316159    -0.077269
 H     7.421777    -3.243531     0.657162
 H     7.027215    -3.123227    -1.073306
 H     6.250254    -4.360223    -0.064615
 C     1.937545     2.632080    -1.911302
 H     1.145929     2.075033    -2.420746
 C     3.250697     3.017416     0.101636
 C     3.631762     2.763758     1.531224
 H     4.231127     1.846170     1.630587
 H     2.748639     2.641579     2.173369
 H     4.228970     3.601591     1.916416
 C     2.600703     3.659176    -2.576302
 H     2.333062     3.905767    -3.606015
 C     3.913858     4.035418    -0.594406
 H     4.693655     4.597916    -0.073778
 C     3.604493     4.357200    -1.913347
 H     4.145456     5.161591    -2.417804
 C    -0.161340     3.157886     0.965478
 H    -0.010130     3.426319    -0.082075
 C     0.134848     1.580722     2.794872
 C     0.611469     0.304334     3.425545
 H     1.681095     0.365453     3.676086
 H     0.491316    -0.561585     2.766659
 H     0.052691     0.111889     4.351926
 C    -0.840222     4.041898     1.793503
 H    -1.224794     4.980296     1.389459
 C    -0.548990     2.495338     3.609603
 H    -0.709763     2.230695     4.658395
 C    -1.021864     3.711993     3.132824
 H    -1.548152     4.393835     3.805131
