  62
scf done:    -2131.587237
 C     1.852788    -3.263635    -0.271516
 H     1.564684    -4.184474    -0.802273
 H     2.674998    -2.833014    -0.868820
 C     2.352102    -3.602376     1.129404
 H     1.566722    -4.072441     1.743189
 H     3.203005    -4.308074     1.099798
 H     2.695636    -2.703661     1.666015
Ir     0.195084    -1.914804    -0.064877
 O     1.213410     1.242205    -0.129073
 O     3.112615    -0.328687     0.595407
 O     2.455770    -0.254222    -1.778419
 O    -2.080322     0.419517    -0.776273
 O    -2.939883    -1.206647     0.877418
 O    -1.245374     0.497615     1.682335
 P    -1.510590    -0.522989     0.435880
 P     1.772653    -0.296770    -0.301089
 C    -0.922412    -3.291729    -0.674772
 O    -1.565380    -4.094567    -1.187100
 C     2.020592     2.349735    -0.024602
 C     2.485708     2.980055    -1.175997
 H     2.222323     2.564041    -2.149446
 C     2.315406     2.833732     1.258795
 C     1.810607     2.114057     2.471351
 H     0.780905     1.758872     2.321148
 H     2.418121     1.215247     2.665933
 H     1.854099     2.757403     3.360773
 C     3.277846     4.120216    -1.063025
 H     3.646242     4.617695    -1.962996
 C     3.108445     3.982639     1.341113
 H     3.350961     4.382825     2.329400
 C     3.590759     4.621175     0.199212
 H     4.208428     5.516786     0.296800
 C     4.415948     0.064805     0.190102
 H     4.659407    -0.351164    -0.796921
 H     4.502240     1.161351     0.155955
 H     5.110001    -0.334182     0.941124
 C     1.672434    -0.489481    -2.936056
 H     1.038715    -1.380819    -2.800707
 H     1.024695     0.375294    -3.154212
 H     2.368752    -0.643559    -3.770550
 C    -3.104092     1.338596    -0.703830
 C    -4.429270     0.911260    -0.659978
 H    -4.633725    -0.159198    -0.644723
 C    -2.766949     2.700259    -0.735351
 C    -1.332647     3.123259    -0.792516
 H    -0.778200     2.780739     0.093644
 H    -0.819037     2.670105    -1.653705
 H    -1.243149     4.215459    -0.862368
 C    -5.453858     1.854361    -0.622510
 H    -6.493943     1.522262    -0.584156
 C    -3.816927     3.623135    -0.700905
 H    -3.576925     4.689724    -0.724112
 C    -5.147965     3.213427    -0.640012
 H    -5.946661     3.958126    -0.613180
 C    -2.945369    -2.177598     1.902824
 H    -2.070826    -2.846577     1.825791
 H    -2.940644    -1.704654     2.899199
 H    -3.861947    -2.772537     1.793027
 C    -2.246424     1.224796     2.374714
 H    -2.263948     2.268958     2.029115
 H    -3.243904     0.787062     2.222351
 H    -1.996430     1.202824     3.445517
