  92
scf done:    -3443.368274
 C    -2.792458     0.993663     1.990026
 H    -2.838134     1.147830     3.080716
 H    -3.027687     1.974178     1.546621
 C    -3.844895    -0.027993     1.567695
 H    -3.694557    -1.000612     2.063473
 H    -4.866103     0.312415     1.818824
 H    -3.831256    -0.214430     0.482124
Ir    -0.888044     0.238147     1.356527
 O    -2.023236     2.776259    -0.621050
 O    -0.162581     3.424068     0.824241
 O     0.336663     2.045513    -1.200637
 O     2.218185    -0.043394     0.103723
 O     1.285353    -2.336914     0.687519
 O     0.451640    -1.159473    -1.283647
 P     0.786651    -0.838543     0.278060
 P    -0.666016     2.093909     0.065271
 C    -0.821907    -0.591646     3.034790
 O    -0.729553    -0.919162     4.134811
 C    -2.918226     1.988505    -1.286829
 C    -4.276471     2.264523    -1.119354
 H    -4.568694     3.095750    -0.475668
 C    -2.513396     0.932525    -2.107152
 H    -1.450712     0.724496    -2.247159
 C    -5.231618     1.469365    -1.740442
 H    -6.295593     1.665230    -1.599708
 C    -3.471018     0.133828    -2.729013
 H    -3.167837    -0.701409    -3.362499
 C    -4.823503     0.393755    -2.530831
Cl    -6.009746    -0.637826    -3.262614
 C    -0.033066     3.555112     2.243632
 H     0.045392     4.640106     2.409774
 H    -0.952525     3.197222     2.733848
 C     1.177182     2.824961     2.788687
 H     1.239103     3.045216     3.869054
 H     0.985425     1.740437     2.698993
 C     2.486568     3.164359     2.095117
 H     2.704652     4.241782     2.207811
 H     2.364008     2.987154     1.016309
 C     3.653767     2.334718     2.602111
 H     3.826855     2.488768     3.679498
 H     3.458395     1.262691     2.442544
 H     4.586163     2.583443     2.072748
 C     0.574881     3.162793    -2.064747
 H     0.627310     2.738576    -3.080216
 H    -0.285822     3.848718    -2.028293
 C     1.862291     3.878498    -1.716229
 H     1.993465     4.699394    -2.443477
 H     1.745517     4.353179    -0.728478
 C     3.081009     2.967967    -1.719069
 H     3.197342     2.516832    -2.720570
 H     2.889295     2.127008    -1.035406
 C     4.365693     3.673728    -1.321288
 H     4.605467     4.500928    -2.008990
 H     4.285922     4.100841    -0.308612
 H     5.219368     2.979260    -1.322481
 C     3.307159    -0.561178    -0.551239
 C     3.348040    -0.593176    -1.944961
 H     2.480416    -0.247511    -2.506167
 C     4.398533    -0.994955     0.198231
 H     4.346439    -0.954222     1.287612
 C     4.487649    -1.062504    -2.590027
 H     4.537424    -1.092109    -3.679629
 C     5.541323    -1.462369    -0.444107
 H     6.404892    -1.801703     0.129842
 C     5.579407    -1.494456    -1.837203
Cl     7.000379    -2.074559    -2.642691
 C     1.370511    -2.806335     2.026302
 H     2.337822    -3.328335     2.107540
 H     1.393408    -1.959123     2.731347
 C     0.222108    -3.740921     2.342819
 H     0.306485    -4.047856     3.399659
 H    -0.721775    -3.173977     2.267402
 C     0.158795    -4.962633     1.437180
 H     1.066653    -5.573827     1.584369
 H     0.191353    -4.627010     0.387609
 C    -1.082304    -5.808506     1.667374
 H    -1.137305    -6.170177     2.706699
 H    -1.999155    -5.228267     1.473569
 H    -1.101398    -6.688646     1.007138
 C    -0.300382    -2.301497    -1.681914
 H    -0.457179    -2.174860    -2.764624
 H     0.314560    -3.205190    -1.536237
 C    -1.632178    -2.430372    -0.969204
 H    -1.460145    -2.601451     0.106913
 H    -2.165923    -1.469788    -1.035964
 C    -2.503418    -3.545805    -1.526505
 H    -1.995985    -4.516627    -1.384677
 H    -2.609021    -3.419153    -2.619262
 C    -3.882570    -3.581530    -0.887486
 H    -3.811627    -3.682370     0.207427
 H    -4.440872    -2.655671    -1.097645
 H    -4.481533    -4.424112    -1.263929
