  82
scf done:    -2145.070544
 C    -1.706213    -3.289555     0.034268
 H    -1.293199    -4.299239     0.189524
 H    -2.323895    -3.110583     0.932804
 C    -2.585284    -3.308638    -1.212704
 H    -1.995920    -3.524152    -2.118081
 H    -3.379200    -4.076528    -1.152588
 H    -3.087809    -2.343984    -1.389117
Ir    -0.135579    -1.830432    -0.141466
 O    -1.378568     1.356239     0.165776
 C    -3.374359    -0.427975     0.747256
 C    -1.107061     0.111606     2.494526
 O     1.784851     0.611701     0.955757
 C     3.184841    -0.952974    -0.858986
 C     1.286018     1.007930    -1.743914
 P     1.527480    -0.275902    -0.452586
 P    -1.554642    -0.215389     0.756885
 C     1.029271    -3.272678    -0.273128
 O     1.760818    -4.162844    -0.227000
 C    -2.224945     2.068853    -0.632548
 C    -2.660462     3.301203    -0.131088
 H    -2.328462     3.592815     0.867367
 C    -2.594454     1.644820    -1.920212
 C    -2.116678     0.361405    -2.536114
 H    -1.549124     0.566959    -3.457090
 H    -1.459196    -0.226784    -1.875769
 H    -2.962906    -0.284179    -2.818156
 C    -3.485335     4.122085    -0.888735
 H    -3.817964     5.081366    -0.485726
 C    -3.439052     2.489828    -2.655529
 H    -3.741722     2.171794    -3.657406
 C    -3.885577     3.709245    -2.159872
 H    -4.538966     4.340111    -2.766345
 H    -3.691001    -0.293634    -0.300021
 H    -3.554167    -1.491374     0.972668
 C    -4.183973     0.476431     1.668486
 H    -3.885897     1.526542     1.519479
 H    -3.952405     0.234946     2.718884
 C    -5.679530     0.339408     1.429035
 H    -5.941976     0.633675     0.400506
 H    -6.015103    -0.699858     1.573711
 H    -6.256021     0.976883     2.116253
 H    -0.067590     0.473128     2.444418
 H    -1.733361     0.935190     2.874334
 C    -1.195234    -1.131982     3.371523
 H    -0.600701    -1.931966     2.898895
 H    -2.235085    -1.502495     3.400435
 C    -0.702922    -0.875030     4.786669
 H     0.347567    -0.543891     4.783286
 H    -1.295658    -0.090769     5.284725
 H    -0.765884    -1.784207     5.403392
 C     2.786886     1.489294     1.262089
 C     4.038862     1.000081     1.644389
 H     4.195208    -0.079298     1.667486
 C     2.515016     2.868787     1.283699
 C     1.166452     3.406489     0.910741
 H     1.141771     3.723022    -0.145895
 H     0.379157     2.652935     1.033625
 H     0.918596     4.290753     1.515545
 C     5.055647     1.877861     2.007005
 H     6.032192     1.485574     2.300127
 C     3.554216     3.727417     1.660745
 H     3.358065     4.803232     1.683755
 C     4.815313     3.250510     2.008485
 H     5.604182     3.949081     2.295957
 H     3.946859    -0.159505    -0.800558
 H     3.416079    -1.686953    -0.069311
 C     3.207988    -1.629202    -2.228432
 H     3.168722    -0.860035    -3.017920
 H     2.296705    -2.237254    -2.358165
 C     4.434317    -2.506729    -2.422434
 H     5.365387    -1.931907    -2.293633
 H     4.442919    -3.330449    -1.691593
 H     4.451725    -2.952979    -3.428162
 H     0.928514     0.444646    -2.623650
 H     0.422617     1.596137    -1.397678
 C     2.449734     1.913260    -2.131341
 H     3.272927     1.309048    -2.546236
 H     2.863494     2.407710    -1.239297
 C     2.030420     2.962626    -3.150297
 H     1.646567     2.494690    -4.071199
 H     1.227871     3.604416    -2.752306
 H     2.872862     3.612960    -3.430614
