  86
scf done:    -2993.951140
 C    -1.541202    -2.449442     2.506166
 H    -1.423431    -2.451946     3.602474
 H    -2.542522    -2.011884     2.342312
 C    -1.517431    -3.881666     1.982089
 H    -0.560389    -4.379473     2.205915
 H    -2.319002    -4.501031     2.426033
 H    -1.649742    -3.925511     0.888499
Ir     0.029768    -1.280555     1.603175
 O    -1.058297     0.454730    -1.037094
 C    -2.617463    -1.722073    -0.685226
 C    -2.856055     0.563892     1.059321
 O     3.110527    -0.196858     1.433174
 C     2.202488    -0.841553    -1.086263
 C     1.502398     1.639113     0.260723
 P     1.692665    -0.161586     0.528311
 P    -1.637448    -0.485909     0.223825
 C     1.149905    -1.856025     2.997844
 O     1.797281    -2.175202     3.888919
 C    -1.792118     1.415337    -1.683269
 C    -1.895131     2.690860    -1.125569
 H    -1.412347     2.891108    -0.167784
 C    -2.408987     1.134165    -2.899715
 H    -2.325902     0.133992    -3.327045
 C    -2.614105     3.677261    -1.789120
 H    -2.688065     4.672406    -1.341892
 C    -3.128601     2.134588    -3.552452
 H    -3.611374     1.906366    -4.506632
 C    -3.246054     3.419880    -3.013584
 C    -4.003452     4.500707    -3.729019
 H    -4.653036     5.060658    -3.039233
 H    -4.632553     4.089606    -4.531028
 H    -3.315683     5.230022    -4.188115
 C    -3.817968    -2.244351    -0.189824
 H    -4.254090    -1.843065     0.726994
 C    -2.069865    -2.262609    -1.857441
 H    -1.128419    -1.867130    -2.246296
 C    -4.466964    -3.281574    -0.854061
 H    -5.402951    -3.701251    -0.481742
 C    -2.711682    -3.295012    -2.531668
 H    -2.302302    -3.724004    -3.448020
 C    -3.904687    -3.792718    -2.017023
 F    -4.521996    -4.780608    -2.656392
 C    -4.058469     0.957455     0.454254
 H    -4.324316     0.584435    -0.537292
 C    -2.523998     1.062693     2.325498
 H    -1.583553     0.734779     2.782705
 C    -4.917006     1.836543     1.103420
 H    -5.855002     2.161581     0.650537
 C    -3.375817     1.943178     2.983655
 H    -3.140898     2.339595     3.972849
 C    -4.560196     2.318613     2.359193
 F    -5.378454     3.161223     2.979632
 C     4.335709     0.155785     0.938251
 C     4.737055     1.491029     0.882496
 H     4.064292     2.271351     1.239620
 C     5.197891    -0.846880     0.492229
 H     4.865640    -1.885420     0.542168
 C     5.989723     1.811512     0.363138
 H     6.293361     2.861244     0.319064
 C     6.447138    -0.511027    -0.018257
 H     7.111062    -1.305706    -0.369907
 C     6.866349     0.823067    -0.098762
 C     8.226641     1.175687    -0.627317
 H     8.989419     1.108995     0.166599
 H     8.253465     2.202178    -1.020525
 H     8.536330     0.492895    -1.432263
 C     3.170928    -0.274095    -1.929552
 H     3.669746     0.656974    -1.654110
 C     1.613996    -2.058741    -1.454907
 H     0.886724    -2.511703    -0.770913
 C     3.520845    -0.895252    -3.124039
 H     4.273777    -0.469819    -3.789641
 C     1.951178    -2.688296    -2.649071
 H     1.499406    -3.636133    -2.947370
 C     2.900798    -2.091385    -3.469986
 F     3.232271    -2.682527    -4.613763
 C     1.469979     2.275761    -0.983003
 H     1.555028     1.692291    -1.900329
 C     1.316469     2.406983     1.420074
 H     1.314481     1.911462     2.395058
 C     1.297262     3.655127    -1.073523
 H     1.260114     4.163287    -2.038398
 C     1.140931     3.784566     1.345049
 H     0.999808     4.395712     2.238321
 C     1.142306     4.392034     0.092578
 F     0.970401     5.709485     0.011961
