  84
scf done:    -3738.345401
 C    -2.217396     2.301726    -2.728253
 H    -2.586969     1.804361    -3.641779
 H    -3.098080     2.358239    -2.065692
 C    -1.744918     3.714361    -3.050664
 H    -0.951808     3.723100    -3.815526
 H    -2.569114     4.345567    -3.429337
 H    -1.330205     4.228530    -2.167217
Ir    -0.688940     1.076815    -1.866947
 O    -2.831515     1.080663     0.786701
 O    -3.701922    -0.070920    -1.259704
 O    -1.862276    -1.208355     0.150328
 O     1.355011    -1.487487    -0.843974
 O     2.472848     0.762096    -1.146044
 O     0.937129     0.365656     0.874444
 P     1.007735     0.125624    -0.744508
 P    -2.292373     0.216174    -0.524736
 C     0.367707     1.361028    -3.406701
 O     0.965036     1.400898    -4.384234
 C    -1.865651     1.757984     1.506233
 C    -1.299062     2.919101     0.981520
 H    -1.650466     3.306770     0.023636
 C    -1.444158     1.248788     2.730663
 H    -1.885949     0.329408     3.117381
 C    -0.280073     3.560452     1.679120
 H     0.179259     4.466475     1.280859
 C    -0.427643     1.889810     3.431413
 H    -0.066304     1.487077     4.378330
 C     0.159605     3.031907     2.891535
Cl     1.468687     3.794546     3.735019
 C    -4.881754    -0.553688    -0.728480
 C    -5.674450     0.255983     0.080250
 H    -5.347559     1.270686     0.308062
 C    -5.267864    -1.850287    -1.056660
 H    -4.622392    -2.450521    -1.699554
 C    -6.858536    -0.265318     0.598621
 H    -7.483646     0.360122     1.240313
 C    -6.452283    -2.358089    -0.531836
 H    -6.752392    -3.380140    -0.773159
 C    -7.246895    -1.571152     0.302217
 H    -8.174041    -1.974090     0.715434
 C    -2.604654    -2.166565     0.802463
 C    -2.361137    -3.488891     0.437063
 H    -1.626619    -3.688419    -0.345479
 C    -3.518556    -1.854665     1.808492
 H    -3.703656    -0.814628     2.074470
 C    -3.062255    -4.511803     1.070871
 H    -2.876863    -5.549360     0.783225
 C    -4.220213    -2.887547     2.425066
 H    -4.953232    -2.645268     3.197660
 C    -3.998500    -4.215061     2.060901
 H    -4.553475    -5.018203     2.550194
 C     2.604114    -2.037572    -0.993403
 C     3.225497    -2.661578     0.086951
 H     2.724168    -2.689823     1.054561
 C     3.233287    -1.989629    -2.238070
 H     2.734180    -1.494387    -3.072602
 C     4.485962    -3.230447    -0.074539
 H     4.984200    -3.717112     0.765170
 C     4.495025    -2.551807    -2.400702
 H     5.000858    -2.512293    -3.366515
 C     5.118779    -3.167240    -1.314855
Cl     6.694835    -3.860212    -1.511257
 C     3.393267     1.334677    -0.303803
 C     4.610115     0.691841    -0.085471
 H     4.806520    -0.264619    -0.571418
 C     3.111026     2.560764     0.297294
 H     2.147998     3.037330     0.107413
 C     5.545805     1.281809     0.761767
 H     6.498983     0.778263     0.938947
 C     4.051540     3.137252     1.147568
 H     3.821015     4.085498     1.637011
 C     5.268977     2.498450     1.385567
 H     6.003340     2.951351     2.055174
 C     1.389505    -0.413228     1.911295
 C     2.470510     0.024131     2.673922
 H     2.967314     0.960264     2.419078
 C     0.712750    -1.588930     2.234507
 H    -0.133191    -1.898790     1.623752
 C     2.887258    -0.742561     3.760245
 H     3.736634    -0.402281     4.357083
 C     1.139608    -2.345610     3.323673
 H     0.610134    -3.268108     3.573546
 C     2.230745    -1.929361     4.087044
 H     2.564455    -2.525015     4.939556
