  86
scf done:    -2993.944689
 C    -1.504966    -3.248897    -0.927879
 H    -1.011730    -4.225431    -0.787552
 H    -2.236961    -3.187714    -0.105037
 C    -2.232683    -3.239576    -2.267706
 H    -1.536158    -3.395669    -3.107073
 H    -2.998088    -4.034978    -2.328279
 H    -2.747369    -2.284551    -2.457124
Ir    -0.019503    -1.706962    -0.705612
 O    -1.381922     1.225600     0.058667
 C    -3.364105    -0.569058    -0.416033
 C    -1.882984    -0.698931     2.071248
 O     1.532428     0.526182     1.170807
 C     3.322519    -0.939587    -0.302670
 C     1.857769     1.184779    -1.515278
 P     1.649917    -0.196286    -0.340387
 P    -1.691203    -0.397923     0.280741
 C     1.065686    -2.835202    -1.722316
 O     1.691987    -3.520528    -2.399433
 C    -2.187786     2.316716     0.260549
 C    -2.953669     2.486305     1.411669
 H    -2.926450     1.731066     2.193622
 C    -2.147505     3.310539    -0.733276
 C    -1.263259     3.152673    -1.928974
 H    -0.201587     3.185334    -1.639362
 H    -1.402936     2.180246    -2.424566
 H    -1.443007     3.949309    -2.663114
 C    -3.724877     3.635636     1.572703
 H    -4.322691     3.758361     2.478728
 C    -2.930619     4.452151    -0.544972
 H    -2.912254     5.228874    -1.314331
 C    -3.721758     4.620379     0.589935
 H    -4.325207     5.522829     0.708168
 C    -4.249556    -1.567676     0.012998
 H    -3.993727    -2.207254     0.858977
 C    -3.716100     0.212542    -1.524715
 H    -3.032474     0.978166    -1.891452
 C    -5.462265    -1.772334    -0.637498
 H    -6.157574    -2.549426    -0.316146
 C    -4.928585     0.023944    -2.177213
 H    -5.215368     0.632508    -3.036201
 C    -5.787656    -0.970144    -1.723956
 F    -6.946888    -1.158265    -2.345000
 C    -3.085121    -0.570956     2.782970
 H    -4.000360    -0.271130     2.268359
 C    -0.725184    -1.086895     2.761323
 H     0.211509    -1.189161     2.208819
 C    -3.132346    -0.817257     4.150190
 H    -4.059895    -0.725108     4.717838
 C    -0.756824    -1.326149     4.131049
 H     0.138360    -1.621030     4.680920
 C    -1.962792    -1.188961     4.807032
 F    -2.005135    -1.421117     6.113278
 C     2.426017     1.319596     1.844592
 C     3.656931     0.827053     2.280606
 H     3.932029    -0.204417     2.066356
 C     2.019007     2.629990     2.154954
 C     0.667239     3.115681     1.740840
 H     0.526605     4.173216     2.000689
 H     0.508119     2.993204     0.660454
 H    -0.125784     2.530032     2.229150
 C     4.523885     1.655458     2.991003
 H     5.488589     1.264643     3.322563
 C     2.908290     3.435720     2.871217
 H     2.605443     4.457842     3.114550
 C     4.155570     2.966080     3.280434
 H     4.831091     3.620280     3.835988
 C     4.458418    -0.356985    -0.873720
 H     4.377353     0.585689    -1.417484
 C     3.453182    -2.163555     0.371529
 H     2.561264    -2.636410     0.793874
 C     5.704974    -0.967427    -0.758785
 H     6.600615    -0.527445    -1.200713
 C     4.692026    -2.778049     0.503926
 H     4.809845    -3.728917     1.026459
 C     5.805820    -2.165870    -0.064040
 F     6.993947    -2.749219     0.053853
 C     2.548215     2.375553    -1.245934
 H     2.992799     2.550710    -0.264386
 C     1.310115     0.988162    -2.789581
 H     0.748257     0.067985    -2.981123
 C     2.677566     3.354244    -2.227665
 H     3.201520     4.291816    -2.033561
 C     1.454687     1.948554    -3.786083
 H     1.036066     1.808342    -4.784202
 C     2.132783     3.123971    -3.487015
 F     2.262619     4.055714    -4.426580
