  98
scf done:    -3151.084155
 C    -1.080754    -3.337720    -1.414431
 H    -0.728549    -4.351695    -1.169519
 H    -2.144695    -3.343003    -1.127975
 C    -0.930096    -3.110546    -2.915524
 H     0.116881    -3.232344    -3.237074
 H    -1.533903    -3.821855    -3.509297
 H    -1.233292    -2.095509    -3.227077
Ir     0.061044    -1.842336    -0.391445
 O    -1.506677     1.136351    -0.670223
 C    -3.303415    -0.916308    -1.279361
 C    -2.394484    -0.440055     1.451464
 O     1.238559     0.338806     1.849571
 C     3.292968    -0.793816     0.409588
 C     1.662535     1.267656    -0.784619
 P     1.542906    -0.230080     0.296354
 P    -1.795338    -0.471739    -0.298253
 C     1.128003    -3.222210     0.261845
 O     1.681369    -4.069392     0.811882
 C    -2.283374     2.262367    -0.749062
 C    -3.134886     2.663119     0.279365
 H    -3.235801     2.049866     1.173253
 C    -2.117863     3.047651    -1.902460
 C    -1.194384     2.604916    -2.996190
 H    -1.330133     1.538087    -3.230966
 H    -1.359443     3.190826    -3.910503
 H    -0.138234     2.726276    -2.706903
 C    -3.863527     3.842905     0.154946
 H    -4.542709     4.142099     0.956220
 C    -2.852816     4.232379    -1.994180
 H    -2.740776     4.849377    -2.890002
 C    -3.724486     4.632365    -0.983601
 H    -4.294620     5.557964    -1.085989
 H    -2.947399    -1.072384    -2.308422
 H    -3.571550    -1.913290    -0.896186
 C    -4.472407     0.019394    -1.247046
 C    -5.423416    -0.024148    -0.220302
 H    -5.358447    -0.795608     0.549948
 C    -4.630029     0.987132    -2.247874
 H    -3.915799     1.026361    -3.073420
 C    -6.468139     0.894978    -0.159939
 H    -7.209342     0.867191     0.640572
 C    -5.666361     1.911551    -2.206384
 H    -5.779111     2.678220    -2.974059
 C    -6.566814     1.863372    -1.149434
 F    -7.552222     2.757312    -1.091779
 H    -1.716996     0.256246     1.963827
 H    -3.413289    -0.028561     1.488536
 C    -2.311640    -1.803025     2.075422
 C    -3.359761    -2.721571     1.974194
 H    -4.294144    -2.434717     1.485399
 C    -1.131121    -2.201973     2.718147
 H    -0.302826    -1.494133     2.798097
 C    -3.241493    -4.011877     2.487580
 H    -4.053750    -4.736525     2.411765
 C    -0.999031    -3.482917     3.241545
 H    -0.081299    -3.806799     3.734940
 C    -2.055892    -4.376464     3.110716
 F    -1.932801    -5.607580     3.603716
 C     1.849043     1.330760     2.576346
 C     3.150254     1.183690     3.057713
 H     3.697353     0.263657     2.856026
 C     1.088220     2.465780     2.903774
 C    -0.329789     2.594050     2.442658
 H    -0.458782     2.232012     1.414396
 H    -1.003463     1.995507     3.078568
 H    -0.673568     3.636255     2.490284
 C     3.736013     2.197004     3.812487
 H     4.760378     2.078037     4.172370
 C     1.694892     3.461333     3.673330
 H     1.115402     4.354551     3.922911
 C     3.010793     3.345837     4.115021
 H     3.463593     4.145692     4.704646
 H     3.895923     0.029888     0.818939
 H     3.287444    -1.600233     1.164036
 C     3.939396    -1.272537    -0.869815
 C     5.340049    -1.271498    -0.942908
 H     5.920986    -0.923515    -0.084297
 C     3.225559    -1.714161    -1.990654
 H     2.128903    -1.744645    -1.958787
 C     6.010858    -1.695210    -2.085315
 H     7.100793    -1.695206    -2.142883
 C     3.881097    -2.138582    -3.144778
 H     3.323992    -2.483188    -4.017895
 C     5.267993    -2.125476    -3.178816
 F     5.901759    -2.527565    -4.278800
 H     1.803670     0.826522    -1.785598
 H     0.650381     1.692755    -0.778128
 C     2.711678     2.298079    -0.492699
 C     2.381593     3.479173     0.182495
 H     1.342650     3.666414     0.458846
 C     4.044605     2.111953    -0.882387
 H     4.323274     1.221399    -1.449753
 C     3.350087     4.421815     0.510648
 H     3.097413     5.335096     1.051379
 C     5.027216     3.045667    -0.564616
 H     6.067279     2.903677    -0.863815
 C     4.668322     4.185524     0.143140
 F     5.604873     5.078734     0.461675
