  70
scf done:    -1987.938914
 C    -1.472352    -3.438282     0.254520
 H    -1.025979    -4.434565     0.402245
 H    -2.083473    -3.278237     1.161301
 C    -2.356935    -3.478938    -0.987976
 H    -1.769087    -3.704029    -1.891970
 H    -3.147032    -4.249835    -0.916211
 H    -2.865803    -2.518690    -1.177855
Ir     0.025274    -1.926897     0.011145
 O    -1.421147     1.133680    -0.127037
 C    -3.251508    -0.658100     0.960381
 C    -0.909535     0.293281     2.410817
 O     1.864457     0.787122     0.627394
 C     3.253025    -0.958098    -1.012471
 C     1.133015     0.680292    -2.058026
 P     1.573189    -0.340576    -0.592383
 P    -1.454467    -0.300382     0.767914
 C     1.289450    -3.273569     0.188482
 O     2.077506    -4.073639     0.453058
 C    -2.460557     1.992571    -0.340815
 C    -2.701663     3.038392     0.550798
 H    -2.063520     3.139125     1.430804
 C    -3.223990     1.840466    -1.510433
 C    -2.889115     0.765430    -2.500118
 H    -3.649268     0.705770    -3.290482
 H    -1.915235     0.963269    -2.975521
 H    -2.799446    -0.226942    -2.032321
 C    -3.740344     3.933736     0.307389
 H    -3.929195     4.750375     1.007938
 C    -4.265179     2.748738    -1.726313
 H    -4.875860     2.642479    -2.627092
 C    -4.530986     3.782529    -0.829906
 H    -5.350764     4.476841    -1.026613
 H    -3.286349    -1.738302     1.171069
 C    -4.055175     0.115277     1.995525
 H    -4.074462     1.193557     1.787255
 H    -3.662537    -0.030312     3.012405
 H    -3.693367    -0.543929    -0.041717
 H    -5.097236    -0.239502     1.996347
 H    -1.589644     1.094143     2.742963
 C    -0.801745    -0.828372     3.434003
 H    -0.117969    -1.609264     3.068187
 H    -1.773908    -1.305007     3.635678
 H     0.078745     0.739364     2.218972
 H    -0.414734    -0.443654     4.389401
 C     2.809228     1.774840     0.678896
 C     4.122277     1.453533     1.034258
 H     4.368610     0.411669     1.243665
 C     2.427592     3.111311     0.467876
 C     1.013903     3.476317     0.129166
 H     0.900532     3.678871    -0.949133
 H     0.319564     2.665616     0.377976
 H     0.706345     4.389255     0.659858
 C     5.086972     2.450598     1.136459
 H     6.111457     2.188308     1.410443
 C     3.417402     4.094478     0.584421
 H     3.135319     5.138962     0.423324
 C     4.735416     3.778877     0.902468
 H     5.483446     4.570626     0.983356
 H     3.609303    -1.505011    -0.124682
 C     3.242578    -1.872343    -2.230585
 H     2.975001    -1.328536    -3.149038
 H     2.523185    -2.696044    -2.112147
 H     3.932040    -0.104487    -1.164276
 H     4.237048    -2.316327    -2.386545
 H     0.269201     1.273261    -1.723689
 C     2.205700     1.542726    -2.707433
 H     3.024196     0.938888    -3.126002
 H     2.651926     2.256428    -2.001020
 H     0.725727    -0.053326    -2.775457
 H     1.774948     2.123155    -3.538162
