  98
scf done:    -2754.318091
 C    -1.692171    -3.356830     0.914648
 H    -1.254236    -4.022544     1.678296
 H    -2.467901    -2.791879     1.461813
 C    -2.338271    -4.193921    -0.183767
 H    -1.609520    -4.872135    -0.656047
 H    -3.164206    -4.822843     0.200254
 H    -2.754166    -3.570352    -0.991223
Ir    -0.101756    -2.062934     0.258051
 O    -1.032124     1.097842    -0.183312
 C    -3.127659    -0.566536    -0.669434
 C    -2.205272     0.067397     2.072949
 O     1.685426     0.427394     1.182987
 C     3.305976    -1.337911    -0.095308
 C     1.631511     0.422852    -1.620520
 P     1.621413    -0.630881    -0.124587
 P    -1.658075    -0.336359     0.380438
 C     0.929864    -3.594855    -0.027636
 O     1.545968    -4.537520    -0.258275
 C    -1.616185     2.307878    -0.426943
 C    -2.858613     2.700029     0.065134
 H    -3.444334     2.028912     0.690057
 C    -0.878041     3.185276    -1.228260
 H     0.090364     2.859982    -1.610760
 C    -3.350215     3.967950    -0.245623
 H    -4.327543     4.262206     0.146648
 C    -1.385175     4.443741    -1.524273
 H    -0.794959     5.116283    -2.153462
 C    -2.631643     4.864336    -1.039527
 C    -3.160345     6.233605    -1.355330
 H    -2.577000     7.015949    -0.842276
 H    -4.208075     6.342482    -1.041449
 H    -3.106744     6.447237    -2.434261
 C    -3.123838    -0.009788    -1.956404
 H    -2.300620     0.629961    -2.276380
 C    -4.185860    -1.396256    -0.286108
 H    -4.182631    -1.864418     0.700038
 C    -4.176109    -0.273846    -2.825094
 H    -4.174275     0.167448    -3.824670
 C    -5.245395    -1.675658    -1.157212
 C    -6.341343    -2.607286    -0.729895
 H    -7.173018    -2.611202    -1.448006
 H    -5.960885    -3.638596    -0.647860
 H    -6.742180    -2.331944     0.257545
 C    -5.229013    -1.097610    -2.429339
 H    -6.049578    -1.301745    -3.122438
 C    -3.527882     0.244555     2.492503
 H    -4.355500     0.133170     1.788987
 C    -1.157043     0.232577     2.985421
 H    -0.126505     0.091390     2.641952
 C    -3.784498     0.581506     3.818558
 H    -4.815392     0.719181     4.153516
 C    -1.404232     0.589041     4.315039
 C    -0.261886     0.762411     5.272432
 H     0.173561    -0.213511     5.542151
 H     0.543950     1.361209     4.821928
 H    -0.582071     1.255027     6.201216
 C    -2.733598     0.755482     4.717942
 H    -2.949361     1.028412     5.754689
 C     2.398099     1.590444     1.270376
 C     1.710825     2.799589     1.164386
 H     0.634860     2.777881     0.993102
 C     3.775588     1.589608     1.495994
 H     4.307980     0.642174     1.587117
 C     2.405248     4.000908     1.257507
 H     1.854066     4.940598     1.160007
 C     4.456100     2.802686     1.581463
 H     5.537007     2.793306     1.748414
 C     3.790642     4.028366     1.461269
 C     4.529210     5.329932     1.583893
 H     4.100734     6.100123     0.925478
 H     5.592837     5.216327     1.329136
 H     4.479060     5.719773     2.614576
 C     3.726985    -1.938479     1.100420
 H     3.069259    -1.924260     1.973652
 C     4.136353    -1.380087    -1.215450
 H     3.805238    -0.922423    -2.151073
 C     4.976156    -2.542211     1.165541
 H     5.310824    -3.002641     2.098257
 C     5.393275    -1.998938    -1.165912
 C     6.257237    -2.057574    -2.392041
 H     5.899363    -2.835858    -3.086214
 H     6.241742    -1.103580    -2.940090
 H     7.301086    -2.292789    -2.140645
 C     5.803575    -2.569423     0.041253
 H     6.784151    -3.049596     0.102015
 C     2.544319     1.457842    -1.861243
 H     3.338357     1.680821    -1.147404
 C     0.644089     0.142572    -2.572560
 H    -0.048883    -0.681165    -2.367358
 C     2.435159     2.209828    -3.030148
 H     3.140736     3.023208    -3.215989
 C     0.525682     0.887272    -3.748732
 C    -0.567937     0.603916    -4.737436
 H    -1.044114    -0.366784    -4.541500
 H    -1.352039     1.377899    -4.683668
 H    -0.187925     0.599518    -5.770266
 C     1.435969     1.930686    -3.960158
 H     1.361682     2.532146    -4.870899
