  86
scf done:    -2445.890352
 C    -1.133950    -3.415710    -0.287480
 H    -0.673010    -4.390249    -0.062444
 H    -1.972207    -3.315822     0.419970
 C    -1.663255    -3.421345    -1.717664
 H    -0.857017    -3.557405    -2.456563
 H    -2.387252    -4.241350    -1.879662
 H    -2.185741    -2.483113    -1.963707
Ir     0.260439    -1.805163    -0.071500
 O    -1.529035     1.026548    -0.420081
 O    -3.024436    -0.964830    -0.015179
 O    -1.730376    -0.054328     1.897386
 O     1.566825     1.137369     0.859019
 O     3.345826    -0.430936     0.166447
 O     2.001983     0.613367    -1.621302
 P     1.789040    -0.122541    -0.179455
 P    -1.537634    -0.451991     0.339126
 C     1.501055    -3.106375     0.429988
 O     2.193228    -3.902239     0.889475
 C    -2.611863     1.872427    -0.455374
 C    -2.975925     2.599567     0.676310
 H    -2.408374     2.459813     1.596358
 C    -3.307153     2.000324    -1.667293
 C    -2.907634     1.184848    -2.857877
 H    -1.912480     1.478975    -3.226811
 H    -2.853386     0.116248    -2.599616
 H    -3.625112     1.310057    -3.679865
 C    -4.055305     3.478277     0.613138
 H    -4.342220     4.048140     1.499798
 C    -4.380448     2.895805    -1.704212
 H    -4.936266     3.010271    -2.638803
 C    -4.758147     3.628772    -0.580122
 H    -5.603445     4.318001    -0.638050
 C    -4.208252    -0.862309     0.804392
 H    -4.084960    -0.003863     1.481998
 C    -4.354015    -2.130205     1.618018
 H    -3.485526    -2.271583     2.275923
 H    -4.437429    -3.005316     0.955968
 H    -5.256563    -2.079068     2.245427
 C    -5.369292    -0.608662    -0.130461
 H    -5.225061     0.331086    -0.681071
 H    -5.465958    -1.432862    -0.853530
 H    -6.306016    -0.535052     0.441552
 C    -0.682611    -0.149854     2.886321
 H     0.234762    -0.475513     2.368341
 C    -1.085759    -1.207431     3.888494
 H    -1.185060    -2.183667     3.391507
 H    -2.045240    -0.951106     4.364243
 H    -0.321476    -1.300207     4.674387
 C    -0.473621     1.224517     3.479384
 H    -0.172090     1.933763     2.696515
 H    -1.393563     1.586957     3.964884
 H     0.327126     1.195682     4.232927
 C     2.382782     2.248210     0.942164
 C     3.628618     2.147195     1.559885
 H     3.951188     1.173837     1.927441
 C     1.901871     3.471679     0.454181
 C     0.534904     3.587197    -0.144984
 H     0.465801     4.461917    -0.806441
 H     0.255272     2.687703    -0.704306
 H    -0.229831     3.708230     0.639912
 C     4.432006     3.276780     1.683879
 H     5.409032     3.196137     2.166066
 C     2.733814     4.589126     0.589903
 H     2.380117     5.551877     0.210467
 C     3.986145     4.502071     1.192146
 H     4.612149     5.392888     1.280721
 C     4.197217    -1.185031    -0.709301
 H     3.561265    -1.812035    -1.363141
 C     5.055536    -2.080472     0.158490
 H     4.437804    -2.762385     0.757395
 H     5.666727    -1.469290     0.840189
 H     5.732014    -2.681957    -0.466576
 C     5.012348    -0.229065    -1.558408
 H     4.352075     0.416717    -2.150540
 H     5.633294     0.410329    -0.912387
 H     5.674651    -0.787950    -2.236803
 C     0.973969     0.667786    -2.623885
 H     0.014254     0.868189    -2.120833
 C     0.880231    -0.656800    -3.353320
 H     0.625432    -1.464187    -2.642862
 H     1.836951    -0.903585    -3.839449
 H     0.094208    -0.618960    -4.122358
 C     1.321625     1.830400    -3.527246
 H     1.405985     2.759893    -2.947084
 H     2.282904     1.651525    -4.032992
 H     0.545885     1.963857    -4.296180
