 112
scf done:    -3632.535428
 C     0.891785    -3.524270    -0.186514
 H     0.417531    -4.300757    -0.808374
 H     1.917697    -3.438084    -0.565956
 C     0.893591    -3.974762     1.268810
 H    -0.124784    -4.204362     1.623057
 H     1.508744    -4.881865     1.423422
 H     1.295284    -3.195789     1.937059
Ir    -0.209989    -1.700105    -0.218454
 O     1.877302     0.827598     0.936757
 C     3.224103    -1.516462     0.380683
 C     2.279536     0.342279    -1.686391
 O    -2.843350    -0.072950    -1.227088
 C    -3.101313    -0.302038     1.458999
 C    -1.297718     1.701509     0.281545
 P    -1.844169    -0.040802     0.111790
 P     1.767164    -0.490889    -0.114486
 C    -1.362341    -2.589934    -1.346153
 O    -1.975280    -3.074990    -2.201152
 C     2.795175     1.826320     0.971463
 C     3.811412     1.800858     1.929973
 H     3.879018     0.938521     2.592753
 C     2.679653     2.920161     0.109448
 H     1.866022     2.941008    -0.615393
 C     4.718155     2.854297     2.019722
 H     5.520252     2.855402     2.760414
 C     3.589402     3.970678     0.188806
 H     3.518223     4.832972    -0.476793
 C     4.599848     3.924974     1.141956
 F     5.473643     4.934513     1.219285
 C     3.971728    -2.234779    -0.574152
 O     3.583102    -2.087919    -1.852133
 C     4.252472    -2.760761    -2.876952
 H     3.753615    -2.471713    -3.810514
 H     5.315736    -2.467800    -2.933880
 H     4.186406    -3.856017    -2.756878
 C     3.505489    -1.754701     1.736129
 O     2.697223    -1.164664     2.649254
 C     2.806485    -1.542918     3.992246
 H     2.001411    -1.026194     4.528310
 H     3.773471    -1.240483     4.431862
 H     2.679644    -2.631733     4.118866
 C     4.569506    -2.583306     2.121539
 H     4.795623    -2.744259     3.174204
 C     5.032343    -3.065016    -0.200349
 H     5.609252    -3.603115    -0.951173
 C     5.328904    -3.218326     1.148993
 H     6.155564    -3.866310     1.449570
 C     3.615470     0.768743    -1.883517
 O     4.470900     0.535319    -0.878465
 C     5.790643     0.990869    -0.941148
 H     6.252818     0.716951     0.015256
 H     6.350495     0.510617    -1.762626
 H     5.834772     2.086604    -1.059408
 C     1.359278     0.599431    -2.726882
 O     0.081727     0.263792    -2.535140
 C    -0.793951     0.164668    -3.626998
 H    -1.728822    -0.234984    -3.221455
 H    -0.390819    -0.515848    -4.395412
 H    -0.996134     1.149432    -4.079881
 C     1.775239     1.209516    -3.923448
 H     1.056412     1.389978    -4.720668
 C     4.024069     1.392155    -3.065834
 H     5.056327     1.713308    -3.194481
 C     3.095641     1.598737    -4.078976
 H     3.409725     2.081427    -5.007833
 C    -4.153611     0.270361    -1.297009
 C    -4.692037     1.387943    -0.655330
 H    -4.059457     2.016611    -0.027778
 C    -4.971078    -0.549803    -2.079162
 H    -4.524128    -1.429499    -2.546311
 C    -6.045244     1.684460    -0.803756
 H    -6.491458     2.548536    -0.307751
 C    -6.320413    -0.248622    -2.236525
 H    -6.976948    -0.874653    -2.843728
 C    -6.842820     0.868071    -1.594881
 F    -8.139791     1.159383    -1.738441
 C    -3.547625     0.650219     2.403139
 O    -3.226184     1.937236     2.188353
 C    -3.478458     2.908436     3.161467
 H    -3.018766     3.834543     2.792923
 H    -4.560238     3.072055     3.309543
 H    -3.021489     2.643486     4.130614
 C    -3.631276    -1.607999     1.574765
 O    -3.361043    -2.442487     0.564195
 C    -3.709091    -3.796824     0.644289
 H    -3.329934    -4.262579    -0.273018
 H    -4.803490    -3.930097     0.690724
 H    -3.243256    -4.283252     1.517791
 C    -4.420457    -1.990596     2.666600
 H    -4.793107    -3.010095     2.750612
 C    -4.334515     0.273661     3.499391
 H    -4.649850     1.014627     4.232288
 C    -4.745221    -1.046251     3.629674
 H    -5.360257    -1.336923     4.484752
 C    -0.621525     1.982028     1.482003
 O    -0.581046     0.949204     2.339225
 C     0.144203     1.050665     3.529765
 H     0.025071     0.086575     4.039364
 H     1.211559     1.228603     3.327945
 H    -0.254662     1.849186     4.180032
 C    -1.412047     2.721342    -0.675799
 O    -2.048674     2.430172    -1.825473
 C    -2.288611     3.439882    -2.760500
 H    -2.869818     2.979529    -3.569738
 H    -1.350157     3.846486    -3.177660
 H    -2.877444     4.268367    -2.329531
 C    -0.894731     4.000316    -0.407113
 H    -0.987620     4.799262    -1.141242
 C    -0.104652     3.247866     1.757718
 H     0.428943     3.447984     2.685735
 C    -0.258106     4.248270     0.803155
 H     0.151453     5.242171     0.998173
