  96
scf done:    -3174.766466
 C    -1.449589    -3.402854    -0.945497
 H    -1.027409    -4.399045    -0.738612
 H    -2.359872    -3.339177    -0.334100
 C    -1.792874    -3.293266    -2.426263
 H    -0.904138    -3.426655    -3.064480
 H    -2.530260    -4.058281    -2.735068
 H    -2.231869    -2.314342    -2.680376
Ir    -0.055542    -1.847596    -0.506370
 O    -1.543739     1.071294    -0.775513
 C    -3.487608    -0.809441    -0.593051
 C    -1.883581    -0.103024     1.793832
 O     2.297146    -0.350340     1.093041
 C     3.081061    -0.797550    -1.535410
 C     1.552474     1.482484    -0.888825
 P     1.672919    -0.301057    -0.459191
 P    -1.802211    -0.394347    -0.021450
 C     1.152178    -3.167884    -0.013688
 O     1.845132    -3.953066     0.471359
 C    -2.211571     2.246673    -0.917815
 C    -1.752552     3.071719    -1.950043
 H    -0.918784     2.724675    -2.562294
 C    -3.271582     2.662811    -0.114165
 H    -3.657310     2.006042     0.663397
 C    -2.334798     4.314143    -2.167721
 H    -1.982206     4.973008    -2.963310
 C    -3.856511     3.910819    -0.331636
 H    -4.689442     4.255801     0.284010
 C    -3.382341     4.724248    -1.350552
 F    -3.943496     5.919274    -1.553769
 C    -3.955021    -0.280362    -1.796369
 H    -3.349638     0.454481    -2.329244
 C    -4.261526    -1.785629     0.065620
 O    -3.756633    -2.265920     1.217519
 C    -4.364818    -3.358564     1.845161
 H    -5.384767    -3.117128     2.193685
 H    -3.739652    -3.603373     2.712694
 H    -4.410398    -4.234009     1.174800
 C    -5.176793    -0.682282    -2.335994
 H    -5.525143    -0.251612    -3.276549
 C    -5.480711    -2.197942    -0.476323
 H    -6.078952    -2.958113     0.026502
 C    -5.933866    -1.640565    -1.672497
 H    -6.888325    -1.972571    -2.088102
 C    -0.704508    -0.376981     2.497214
 H     0.172967    -0.700144     1.933500
 C    -3.026335     0.265225     2.537809
 O    -4.167374     0.497611     1.860261
 C    -5.391746     0.559986     2.535963
 H    -5.542276    -0.328463     3.172501
 H    -6.169050     0.584050     1.761305
 H    -5.476293     1.466983     3.159511
 C    -0.629943    -0.262243     3.883055
 H     0.310101    -0.480551     4.393124
 C    -2.956760     0.377480     3.930483
 H    -3.840095     0.665970     4.500383
 C    -1.760738     0.119281     4.597070
 H    -1.724805     0.211484     5.685596
 C     3.507617    -0.010753     1.609314
 C     3.681444     1.230000     2.223615
 H     2.843327     1.926623     2.234231
 C     4.546751    -0.942907     1.593606
 H     4.377551    -1.916153     1.129023
 C     4.906239     1.551646     2.802073
 H     5.071549     2.514114     3.290286
 C     5.775250    -0.621457     2.165141
 H     6.605626    -1.330088     2.165294
 C     5.941296     0.624492     2.758567
 F     7.120158     0.936228     3.304996
 C     2.909018    -1.902019    -2.374677
 H     1.940835    -2.411245    -2.356182
 C     4.316122    -0.106810    -1.579925
 O     4.421163     0.992849    -0.822674
 C     5.624010     1.707649    -0.777997
 H     6.452860     1.080198    -0.409061
 H     5.463339     2.531953    -0.073038
 H     5.886739     2.120611    -1.767209
 C     3.926481    -2.352313    -3.213817
 H     3.763138    -3.219789    -3.855694
 C     5.346276    -0.567904    -2.406561
 H     6.305339    -0.050647    -2.429131
 C     5.147420    -1.687147    -3.213415
 H     5.962885    -2.032655    -3.853890
 C     1.924019     1.900200    -2.169628
 H     2.288035     1.157583    -2.883133
 C     1.047042     2.446638     0.006294
 O     0.618924     2.008638     1.204524
 C    -0.057401     2.895963     2.057867
 H     0.608607     3.698653     2.420032
 H    -0.399403     2.299410     2.912116
 H    -0.930962     3.345292     1.556676
 C     1.865356     3.239025    -2.551776
 H     2.171900     3.534372    -3.557267
 C     1.012548     3.796101    -0.364095
 H     0.637472     4.545718     0.331790
 C     1.430159     4.188204    -1.632885
 H     1.390485     5.245635    -1.905106
