 110
scf done:    -2611.673067
 C    -1.466130     1.085163    -3.014809
 H    -0.980506     1.128503    -4.002760
 H    -2.402675     0.534419    -3.186275
 C    -1.776851     2.504978    -2.555627
 H    -0.865991     3.119817    -2.473459
 H    -2.448111     3.029416    -3.260772
 H    -2.265481     2.525644    -1.566901
Ir    -0.138388     0.191412    -1.600528
 O    -2.477014     1.231010     0.852021
 C    -3.506365    -0.333033    -0.937646
 C    -1.672868    -1.409195     1.190273
 O     1.829697    -0.765072     1.252427
 C     3.293610    -0.329159    -1.052217
 C     1.890154     1.765688     0.591954
 P     1.701304     0.112155    -0.198130
 P    -1.891576    -0.064953    -0.075114
 C     0.752644    -0.604334    -3.007823
 O     1.213595    -1.269701    -3.834397
 C    -1.837155     1.992122     1.772223
 C    -0.821273     1.509359     2.601173
 H    -0.451545     0.491705     2.479426
 C    -2.305789     3.313949     1.915757
 C    -3.401839     3.814950     1.027831
 H    -3.673220     4.848637     1.280913
 H    -3.101065     3.783849    -0.030736
 H    -4.300973     3.185073     1.114771
 C    -0.274167     2.326973     3.590328
 H     0.515043     1.929986     4.233371
 C    -1.733739     4.110868     2.908568
 H    -2.094290     5.136532     3.025302
 C    -0.727126     3.631660     3.748450
 H    -0.302138     4.276996     4.519958
 H    -3.572395     0.622150    -1.491200
 C    -4.763136    -0.426742    -0.072755
 H    -4.758956     0.353293     0.702023
 H    -4.785769    -1.400858     0.444508
 C    -6.005016    -0.307955    -0.953799
 H    -6.914433    -0.392065    -0.336583
 H    -6.027727     0.700522    -1.405045
 C    -6.015147    -1.358404    -2.059899
 H    -6.891504    -1.218837    -2.713523
 H    -6.126639    -2.358666    -1.602751
 C    -4.728126    -1.330317    -2.878997
 H    -4.670739    -0.383660    -3.446233
 H    -4.731614    -2.139688    -3.626722
 C    -3.497996    -1.451017    -1.984714
 H    -3.521779    -2.430716    -1.483132
 H    -2.569436    -1.424061    -2.573990
 H    -0.628202    -1.267541     1.519754
 C    -1.744870    -2.808210     0.570484
 H    -1.092704    -2.869584    -0.314958
 H    -2.775033    -2.996968     0.227490
 C    -1.367619    -3.873659     1.594487
 H    -1.449039    -4.872926     1.137528
 H    -0.310409    -3.747961     1.873252
 C    -2.227649    -3.784262     2.848414
 H    -1.898850    -4.530745     3.589501
 H    -3.275437    -4.033374     2.598719
 C    -2.180734    -2.382973     3.445461
 H    -1.155265    -2.170732     3.799661
 H    -2.835975    -2.314049     4.328932
 C    -2.583687    -1.328376     2.419329
 H    -3.627219    -1.504008     2.116994
 H    -2.559770    -0.327668     2.871758
 C     1.908133    -2.118246     1.330325
 C     1.766920    -2.964344     0.227846
 H     1.523566    -2.545834    -0.750612
 C     2.155092    -2.640611     2.614286
 C     2.272432    -1.706929     3.778695
 H     3.082204    -0.976888     3.621718
 H     1.348897    -1.120305     3.912515
 H     2.470964    -2.256036     4.708967
 C     1.912490    -4.341646     0.388205
 H     1.804181    -4.995193    -0.480308
 C     2.292677    -4.023547     2.743393
 H     2.492911    -4.438440     3.735108
 C     2.183937    -4.876275     1.643864
 H     2.300874    -5.954141     1.772847
 H     3.017752    -1.223149    -1.639891
 C     4.486330    -0.721360    -0.178489
 H     4.204335    -1.502995     0.541382
 H     4.824469     0.144825     0.410624
 C     5.633085    -1.215966    -1.057274
 H     6.499352    -1.479241    -0.428936
 H     5.320179    -2.148752    -1.560185
 C     6.030973    -0.184492    -2.107562
 H     6.828625    -0.583780    -2.754733
 H     6.457339     0.700422    -1.600464
 C     4.834569     0.252202    -2.946174
 H     4.473737    -0.597703    -3.552378
 H     5.129231     1.039540    -3.658639
 C     3.691588     0.748255    -2.066807
 H     4.014915     1.656196    -1.529925
 H     2.826972     1.038065    -2.684881
 H     1.103685     1.704033     1.361152
 C     1.477227     2.903081    -0.344454
 H     0.513343     2.655755    -0.822607
 H     2.209304     3.010201    -1.162478
 C     1.368835     4.214442     0.425363
 H     1.103612     5.032560    -0.263643
 H     0.541921     4.134456     1.152133
 C     2.664266     4.536484     1.162961
 H     2.553418     5.466805     1.743431
 H     3.466246     4.724134     0.425358
 C     3.084453     3.391046     2.078106
 H     2.335115     3.279508     2.880550
 H     4.042602     3.622847     2.571392
 C     3.198509     2.072044     1.316420
 H     4.023399     2.150443     0.588217
 H     3.452569     1.250338     2.003487
