  84
scf done:    -4135.110607
 C    -1.894328     3.365466    -1.946484
 H    -2.336811     3.195262    -2.943163
 H    -2.749091     3.319796    -1.250016
 C    -1.267220     4.752570    -1.876113
 H    -0.493703     4.898912    -2.646968
 H    -2.020355     5.548925    -2.015513
 H    -0.779149     4.942633    -0.905376
Ir    -0.498460     1.793510    -1.548634
 O    -2.573587     1.220908     1.098316
 O    -3.612379     0.838066    -1.148340
 O    -1.888651    -0.855196    -0.235475
 O     1.263164    -1.144903    -1.431249
 O     2.619911     0.973424    -1.089524
 O     1.079955     0.127213     0.782601
 P     1.100964     0.387713    -0.836275
 P    -2.162308     0.746349    -0.439949
 C     0.545301     2.390064    -3.007408
 O     1.117395     2.636888    -3.969280
 C    -1.524158     1.561379     1.930189
 C    -0.843043     2.761858     1.730975
 H    -1.169285     3.444790     0.944447
 C    -1.137860     0.680791     2.935809
 H    -1.672614    -0.260652     3.068729
 C     0.255097     3.067661     2.529125
 H     0.802492     4.000431     2.384421
 C    -0.042630     0.985711     3.737449
 H     0.288139     0.294169     4.513257
 C     0.658105     2.169300     3.515807
Cl     2.060197     2.519115     4.473561
 C    -4.837314     0.378303    -0.706460
 C    -5.479059     0.981360     0.372097
 H    -5.001090     1.815117     0.885834
 C    -5.429927    -0.676641    -1.396253
 H    -4.906375    -1.118978    -2.244737
 C    -6.712722     0.490494     0.792940
 H    -7.240349     0.934106     1.639063
 C    -6.661785    -1.166912    -0.978057
 H    -7.144845    -2.001885    -1.488032
 C    -7.284622    -0.581694     0.119173
 F    -8.459101    -1.055776     0.528978
 C    -2.778226    -1.861815     0.067506
 C    -2.793376    -2.965779    -0.781837
 H    -2.122641    -2.975969    -1.642839
 C    -3.603574    -1.812822     1.191090
 H    -3.587308    -0.938760     1.841319
 C    -3.663406    -4.021844    -0.526077
 H    -3.702008    -4.898017    -1.175613
 C    -4.481093    -2.862796     1.441746
 H    -5.155159    -2.843752     2.299558
 C    -4.503874    -3.952620     0.578821
 F    -5.346393    -4.954071     0.818662
 C     2.436367    -1.748812    -1.811376
 C     2.992270    -2.749958    -1.016902
 H     2.501770    -3.032992    -0.085519
 C     3.050778    -1.372913    -3.006526
 H     2.603612    -0.586198    -3.616464
 C     4.174634    -3.370000    -1.411737
 H     4.621450    -4.151988    -0.796015
 C     4.235569    -1.986198    -3.400263
 H     4.730458    -1.694654    -4.327800
 C     4.795997    -2.980642    -2.597481
Cl     6.276147    -3.738966    -3.080304
 C     3.620355     1.121831    -0.160938
 C     4.744139     0.299451    -0.220883
 H     4.810113    -0.468099    -0.992456
 C     3.517043     2.115668     0.811907
 H     2.625888     2.744317     0.839379
 C     5.766506     0.463290     0.710026
 H     6.656872    -0.167371     0.689001
 C     4.534275     2.277868     1.748057
 H     4.466367     3.032792     2.532243
 C     5.646784     1.445873     1.686262
 F     6.621007     1.595099     2.582246
 C     1.444941    -0.983967     1.502097
 C     2.574336    -0.932729     2.317138
 H     3.176587    -0.024929     2.348154
 C     0.638436    -2.121438     1.474730
 H    -0.243201    -2.130810     0.836263
 C     2.911942    -2.036862     3.095165
 H     3.791422    -2.024097     3.741167
 C     0.975086    -3.227391     2.250977
 H     0.362589    -4.130718     2.245102
 C     2.112019    -3.173143     3.049691
 F     2.437033    -4.229486     3.792899
