 102
scf done:    -3054.955813
 C    -1.156519    -2.837482    -1.645753
 H    -0.690556    -3.816100    -1.844677
 H    -2.125107    -3.066584    -1.176964
 C    -1.367532    -2.109091    -2.967065
 H    -0.411655    -1.900959    -3.474809
 H    -1.990347    -2.695160    -3.668461
 H    -1.872549    -1.139614    -2.827933
Ir     0.084265    -1.605002    -0.420459
 O    -1.839956     1.058743    -0.939685
 C    -3.443052    -1.074027    -0.321671
 C    -2.043153     0.227213     1.779896
 O     1.692082     0.890569     1.495783
 C     3.291705    -1.142689     0.751503
 C     2.300318     0.892837    -1.168428
 P     1.815247    -0.207026     0.211621
 P    -1.827606    -0.298798     0.041263
 C     1.160534    -3.102471    -0.312405
 O     1.740983    -4.089323    -0.172137
 C    -2.585232     2.194072    -1.088931
 C    -2.901758     3.028113    -0.017889
 H    -2.568252     2.761369     0.982418
 C    -2.920868     2.555130    -2.407112
 C    -2.502160     1.703909    -3.567544
 H    -1.443388     1.418752    -3.491959
 H    -3.065283     0.757856    -3.616113
 H    -2.658575     2.234464    -4.516426
 C    -3.613023     4.204259    -0.236614
 H    -3.855767     4.850331     0.610694
 C    -3.634551     3.742662    -2.596255
 H    -3.903767     4.031690    -3.615986
 C    -3.993959     4.560894    -1.528001
 H    -4.550372     5.483456    -1.707128
 C    -4.317373    -0.625303    -1.305436
 H    -4.073479     0.273001    -1.870364
 C    -3.779486    -2.221739     0.420927
 O    -2.885136    -2.581298     1.357087
 C    -2.998376    -3.818494     2.001252
 H    -3.895006    -3.863254     2.644002
 H    -2.103130    -3.923116     2.626267
 H    -3.029240    -4.648424     1.274960
 C    -5.512387    -1.297866    -1.563135
 H    -6.187521    -0.931365    -2.338954
 C    -4.969903    -2.905325     0.162894
 H    -5.227220    -3.800964     0.728982
 C    -5.831133    -2.435780    -0.828911
 H    -6.761275    -2.974187    -1.026558
 C    -0.986867    -0.001838     2.661711
 H    -0.076929    -0.451304     2.262670
 C    -3.253375     0.751359     2.289900
 O    -4.258751     0.910163     1.416920
 C    -5.482832     1.445325     1.829222
 H    -5.954313     0.827257     2.612445
 H    -6.127255     1.452581     0.941472
 H    -5.371298     2.479176     2.200203
 C    -1.083981     0.324491     4.012611
 H    -0.237309     0.148949     4.678603
 C    -3.351909     1.085992     3.644101
 H    -4.276128     1.505846     4.041376
 C    -2.265914     0.876151     4.494309
 H    -2.358015     1.144912     5.549753
 C     2.382239     2.074128     1.588772
 C     3.706538     2.107914     2.024886
 H     4.216053     1.172898     2.254536
 C     1.691353     3.258686     1.285914
 C     0.252797     3.200181     0.888584
 H    -0.145048     4.200367     0.672705
 H     0.102113     2.572553    -0.001242
 H    -0.347109     2.746144     1.692667
 C     4.370008     3.327587     2.139307
 H     5.407080     3.347548     2.483752
 C     2.381585     4.468393     1.402467
 H     1.854622     5.396070     1.163137
 C     3.710668     4.512139     1.818811
 H     4.225942     5.471809     1.903414
 C     3.576442    -1.280936     2.108100
 H     2.968079    -0.732647     2.830706
 C     4.041322    -1.881950    -0.181313
 O     3.670731    -1.738770    -1.466563
 C     4.226619    -2.569890    -2.445462
 H     5.309455    -2.391065    -2.567804
 H     3.716773    -2.324828    -3.385426
 H     4.058165    -3.634452    -2.209040
 C     4.614969    -2.104805     2.545240
 H     4.826299    -2.199173     3.612333
 C     5.082416    -2.706692     0.248697
 H     5.668224    -3.278975    -0.470992
 C     5.367929    -2.807859     1.610868
 H     6.182335    -3.458664     1.938297
 C     1.275245     1.256258    -2.045966
 H     0.278282     0.837238    -1.883939
 C     3.592444     1.419960    -1.380581
 O     4.563115     1.015784    -0.548622
 C     5.846134     1.560788    -0.650307
 H     6.308694     1.338402    -1.627851
 H     6.444172     1.089458     0.140053
 H     5.835656     2.652690    -0.490904
 C     1.493871     2.145989    -3.095781
 H     0.673192     2.426136    -3.758680
 C     3.813717     2.314556    -2.433532
 H     4.805420     2.735979    -2.597004
 C     2.766463     2.675234    -3.279170
 H     2.957925     3.379554    -4.092670
