 118
scf done:    -3512.741882
 C     1.353880    -2.590835    -2.083730
 H     0.893529    -2.797372    -3.067608
 H     2.237292    -1.969020    -2.302868
 C     1.806497    -3.905131    -1.458149
 H     0.962237    -4.598678    -1.311175
 H     2.555295    -4.432238    -2.080213
 H     2.266534    -3.750929    -0.468954
Ir    -0.095578    -1.475407    -0.947903
 O     1.365058     0.701284     1.198289
 C     3.126034    -1.245336     0.380257
 C     2.458742     1.039634    -1.277474
 O    -1.591217     1.381556    -0.394589
 C    -3.453827    -0.618511    -0.354316
 C    -1.644208    -0.144784     1.939521
 P    -1.712317    -0.211473     0.099163
 P     1.706322    -0.206588    -0.165473
 C    -1.277931    -2.863008    -1.259797
 O    -1.975826    -3.776709    -1.381776
 C     1.568767     2.016600     1.463182
 C     1.092121     3.016098     0.616083
 H     0.523264     2.726376    -0.265594
 C     2.224330     2.336186     2.664501
 C     2.693521     1.234796     3.561149
 H     1.841443     0.627810     3.904086
 H     3.362971     0.551134     3.015801
 H     3.222625     1.633126     4.438249
 C     1.313853     4.354795     0.930434
 H     0.941567     5.132401     0.258946
 C     2.422553     3.687261     2.962912
 H     2.938391     3.948801     3.891600
 C     1.988148     4.696269     2.101279
 H     2.161644     5.744793     2.354383
 C     4.254427    -1.490573    -0.430282
 O     4.284168    -0.893118    -1.634365
 C     5.378225    -1.061713    -2.485937
 H     5.169700    -0.451062    -3.373900
 H     6.316646    -0.709318    -2.023162
 H     5.500746    -2.115099    -2.792134
 C     3.037895    -1.936156     1.604881
 O     1.914167    -1.757974     2.317882
 C     1.824381    -2.314565     3.599046
 H     0.870627    -1.970186     4.012712
 H     2.649022    -1.971325     4.247496
 H     1.828411    -3.418334     3.566809
 C     4.073535    -2.774531     2.041467
 H     4.000734    -3.295870     2.994088
 C     5.287486    -2.331294     0.000570
 H     6.157343    -2.506890    -0.630276
 C     5.188747    -2.957288     1.235870
 H     5.992917    -3.616444     1.571334
 C     3.568160     1.810923    -0.879486
 O     4.069302     1.530656     0.332379
 C     5.076473     2.338837     0.875170
 H     5.275474     1.948909     1.880734
 H     6.004132     2.285295     0.279649
 H     4.747433     3.387740     0.958012
 C     1.954260     1.216469    -2.575964
 O     0.926137     0.434480    -2.940071
 C     0.667618     0.205080    -4.296215
 H     1.590672    -0.055177    -4.840618
 H     0.196938     1.079693    -4.779459
 H    -0.022440    -0.646773    -4.329302
 C     2.509579     2.171279    -3.439501
 H     2.103057     2.314444    -4.440004
 C     4.112657     2.781488    -1.725296
 H     4.952702     3.395347    -1.403991
 C     3.571732     2.949034    -2.996432
 H     3.994828     3.706034    -3.661467
 C    -2.600365     2.270393    -0.582654
 C    -3.714089     2.343255     0.256863
 H    -3.796802     1.665358     1.106565
 C    -2.468779     3.135654    -1.683656
 C    -1.270883     3.030224    -2.577022
 H    -1.481069     3.450710    -3.571293
 H    -0.406801     3.579217    -2.165630
 H    -0.956057     1.982593    -2.672147
 C    -4.709936     3.283978     0.006438
 H    -5.580089     3.331783     0.665721
 C    -3.481236     4.072501    -1.906571
 H    -3.391085     4.747030    -2.763212
 C    -4.597133     4.154458    -1.075192
 H    -5.377380     4.892322    -1.275654
 C    -4.484647    -0.988867     0.531720
 O    -4.287366    -0.750468     1.838315
 C    -5.082081    -1.382432     2.799757
 H    -4.616027    -1.167049     3.770272
 H    -6.115697    -0.994026     2.803606
 H    -5.103840    -2.474396     2.645984
 C    -3.739188    -0.661561    -1.736395
 O    -2.787447    -0.167398    -2.546585
 C    -3.020033    -0.113636    -3.924080
 H    -2.154160     0.392585    -4.364783
 H    -3.927363     0.469229    -4.157723
 H    -3.110917    -1.121950    -4.363563
 C    -4.947031    -1.176504    -2.217797
 H    -5.145778    -1.228604    -3.286785
 C    -5.688130    -1.526072     0.056721
 H    -6.466117    -1.836033     0.753108
 C    -5.899500    -1.625177    -1.311210
 H    -6.839861    -2.040199    -1.681702
 C    -1.693808    -1.394413     2.572397
 O    -2.011704    -2.453293     1.790027
 C    -1.205062    -3.608448     1.876875
 H    -1.638207    -4.341138     1.186055
 H    -0.178773    -3.373691     1.550475
 H    -1.202217    -4.033596     2.894853
 C    -1.445649     0.997482     2.741504
 O    -1.475410     2.192383     2.139014
 C    -1.363099     3.365980     2.892538
 H    -1.481328     4.194504     2.184397
 H    -0.372956     3.447865     3.371149
 H    -2.154022     3.429967     3.660462
 C    -1.247336     0.864322     4.124243
 H    -1.070356     1.746387     4.737831
 C    -1.533797    -1.529591     3.954253
 H    -1.618446    -2.512162     4.420526
 C    -1.298211    -0.392193     4.718166
 H    -1.165791    -0.480070     5.799538
