 112
scf done:    -4353.094455
 C     0.793333    -3.665271    -0.156392
 H     0.266552    -4.433018    -0.745825
 H     1.805237    -3.620913    -0.578370
 C     0.838552    -4.092480     1.305196
 H    -0.171957    -4.279923     1.703991
 H     1.427134    -5.018542     1.450295
 H     1.294384    -3.317865     1.943232
Ir    -0.243548    -1.804191    -0.170132
 O     1.977508     0.657181     0.866090
 C     3.218305    -1.735917     0.280220
 C     2.249069     0.134150    -1.765330
 O    -2.854619    -0.092895    -1.090869
 C    -3.012592    -0.289417     1.605515
 C    -1.187298     1.640333     0.336052
 P    -1.800885    -0.082901     0.208589
 P     1.775864    -0.669507    -0.165935
 C    -1.468426    -2.660401    -1.247395
 O    -2.128128    -3.127453    -2.077036
 C     2.924814     1.624181     0.845234
 C     3.984693     1.577478     1.754635
 H     4.053354     0.724686     2.429672
 C     2.806742     2.708959    -0.027884
 H     1.959113     2.750631    -0.711796
 C     4.935746     2.593126     1.776581
 H     5.770771     2.561779     2.478690
 C     3.760142     3.721444    -0.016486
 H     3.679563     4.566694    -0.701957
 C     4.824515     3.656327     0.881812
Cl     6.029431     4.908473     0.879938
 C     3.900886    -2.487096    -0.697688
 O     3.460476    -2.341896    -1.958835
 C     4.072106    -3.035350    -3.005953
 H     3.544224    -2.737637    -3.920624
 H     5.139166    -2.769020    -3.105640
 H     3.983769    -4.128133    -2.878110
 C     3.551351    -1.967446     1.625113
 O     2.803546    -1.341154     2.565155
 C     2.959386    -1.708101     3.906823
 H     2.195403    -1.159706     4.470853
 H     3.953836    -1.432393     4.300232
 H     2.803493    -2.790775     4.052136
 C     4.605096    -2.824900     1.973707
 H     4.872380    -2.981408     3.017357
 C     4.951109    -3.345586    -0.360352
 H     5.478077    -3.909246    -1.128921
 C     5.301343    -3.493552     0.976674
 H     6.120170    -4.163626     1.248893
 C     3.587969     0.520267    -2.019752
 O     4.478329     0.263050    -1.051590
 C     5.804960     0.690073    -1.166081
 H     6.299973     0.397109    -0.232066
 H     6.318764     0.203935    -2.013579
 H     5.869570     1.785593    -1.276140
 C     1.294410     0.415065    -2.768335
 O     0.016896     0.114358    -2.524708
 C    -0.905073     0.043438    -3.579978
 H    -1.833107    -0.332791    -3.138064
 H    -0.552607    -0.644608    -4.366368
 H    -1.099079     1.035125    -4.020876
 C     1.677579     1.012683    -3.981947
 H     0.931786     1.213035    -4.749059
 C     3.964254     1.131726    -3.218896
 H     4.998794     1.424329    -3.390085
 C     3.000758     1.364857    -4.192564
 H     3.289341     1.838904    -5.134038
 C    -4.140141     0.326877    -1.131379
 C    -4.606729     1.457385    -0.456642
 H    -3.932526     2.037719     0.174274
 C    -5.014410    -0.425483    -1.920707
 H    -4.626207    -1.318116    -2.415244
 C    -5.941666     1.833283    -0.579026
 H    -6.317888     2.712156    -0.052669
 C    -6.345429    -0.045339    -2.051075
 H    -7.033906    -0.627220    -2.666137
 C    -6.804699     1.086141    -1.377768
Cl    -8.467694     1.564473    -1.531113
 C    -3.384268     0.683061     2.561543
 O    -3.023773     1.956083     2.326162
 C    -3.207329     2.942663     3.299547
 H    -2.730447     3.849713     2.906320
 H    -4.276821     3.143950     3.485206
 H    -2.724406     2.669479     4.253661
 C    -3.585636    -1.574478     1.750407
 O    -3.387179    -2.423594     0.735566
 C    -3.781874    -3.763760     0.838223
 H    -3.457351    -4.247827    -0.090469
 H    -4.877690    -3.855730     0.928963
 H    -3.299765    -4.262849     1.695585
 C    -4.344024    -1.921847     2.875322
 H    -4.750900    -2.926180     2.980385
 C    -4.140332     0.341391     3.690268
 H    -4.398497     1.096931     4.430566
 C    -4.594478    -0.961565     3.844720
 H    -5.185432    -1.224964     4.725211
 C    -0.455156     1.909118     1.506062
 O    -0.416018     0.884037     2.372477
 C     0.360352     0.971003     3.531667
 H     0.229051     0.016352     4.055827
 H     1.424146     1.109740     3.285082
 H     0.016391     1.788932     4.189042
 C    -1.303858     2.653708    -0.627986
 O    -1.992258     2.372243    -1.749614
 C    -2.252391     3.384632    -2.676971
 H    -2.883371     2.935972    -3.454876
 H    -1.325572     3.766259    -3.140900
 H    -2.799287     4.228355    -2.221337
 C    -0.733963     3.916931    -0.393615
 H    -0.828384     4.711098    -1.132713
 C     0.115037     3.159028     1.746957
 H     0.690609     3.350277     2.651475
 C    -0.042246     4.154807     0.788068
 H     0.407954     5.135980     0.955999
