 104
scf done:    -3751.839171
 C    -2.818366    -1.777819     2.516096
 H    -2.713895    -1.656388     3.607355
 H    -3.697852    -1.155945     2.267006
 C    -3.120742    -3.240342     2.203184
 H    -2.314496    -3.901044     2.558577
 H    -4.056991    -3.586423     2.678751
 H    -3.217710    -3.430040     1.121755
Ir    -1.007191    -1.050672     1.580776
 O    -1.962430     0.616038    -1.363784
 C    -3.883746    -1.119126    -0.533366
 C    -3.349655     1.428018     0.715878
 O     0.654128     1.352059     0.100127
 C     2.258138     0.157921     2.043691
 C     1.905113    -0.905223    -0.649255
 P     0.948753    -0.175889     0.746072
 P    -2.488017    -0.055915     0.075615
 C    -0.161265    -1.935218     2.986800
 O     0.301660    -2.491714     3.880701
 C    -1.127845     0.013696    -2.242752
 C    -0.917649    -1.368137    -2.291995
 H    -1.393413    -2.031401    -1.568859
 C    -0.461866     0.846438    -3.147970
 H    -0.631372     1.922491    -3.087766
 C    -0.030954    -1.911861    -3.219810
 H     0.164358    -2.984784    -3.227477
 C     0.424818     0.307572    -4.071456
 H     0.961932     0.954361    -4.767353
 C     0.648583    -1.071690    -4.095607
Cl     1.809172    -1.732277    -5.200556
 H    -3.413683    -1.906200    -1.140492
 H    -4.291527    -1.618072     0.353473
 C    -4.933804    -0.396134    -1.321670
 C    -4.678965    -0.056737    -2.656199
 H    -3.733693    -0.361190    -3.111536
 C    -6.164862    -0.029782    -0.737637
 C    -6.512340    -0.408127     0.674257
 H    -5.812422     0.021446     1.407790
 H    -6.491963    -1.500360     0.818895
 H    -7.519515    -0.057470     0.936530
 C    -5.606741     0.654190    -3.410771
 H    -5.385131     0.907850    -4.449897
 C    -7.085683     0.685224    -1.512042
 H    -8.041341     0.969969    -1.063551
 C    -6.815373     1.033666    -2.832600
 H    -7.553796     1.593553    -3.411223
 H    -4.122020     1.675683    -0.028518
 H    -3.858711     1.081712     1.627251
 C    -2.487825     2.625726     0.992240
 C    -2.259947     3.543592    -0.038486
 H    -2.670167     3.332189    -1.029017
 C    -1.949754     2.867938     2.272298
 C    -2.114725     1.882087     3.387753
 H    -1.653566     0.909346     3.115911
 H    -3.174974     1.678376     3.610735
 H    -1.642637     2.243765     4.311142
 C    -1.537521     4.711995     0.181745
 H    -1.372656     5.416988    -0.636063
 C    -1.244061     4.059165     2.480833
 H    -0.847248     4.265174     3.479156
 C    -1.041823     4.979277     1.455106
 H    -0.487655     5.901006     1.648658
 C     1.599028     2.287474    -0.194342
 C     1.811889     3.332946     0.706542
 H     1.201785     3.376781     1.609004
 C     2.326174     2.243933    -1.387146
 H     2.136431     1.448393    -2.106531
 C     2.767043     4.308939     0.441195
 H     2.939679     5.125132     1.144445
 C     3.287535     3.213729    -1.654953
 H     3.868047     3.178689    -2.578135
 C     3.513129     4.236675    -0.734721
Cl     4.724124     5.432706    -1.060195
 H     2.106140     1.211985     2.321900
 H     1.958787    -0.434324     2.917463
 C     3.694161    -0.095108     1.685456
 C     4.471947     0.930793     1.133957
 H     4.027963     1.917453     0.991253
 C     4.274754    -1.366026     1.889670
 C     3.502855    -2.493381     2.508890
 H     2.609432    -2.750420     1.920459
 H     3.161365    -2.245706     3.526556
 H     4.119182    -3.399920     2.573017
 C     5.798337     0.720217     0.767449
 H     6.378813     1.540132     0.338266
 C     5.610032    -1.558361     1.517245
 H     6.059429    -2.542832     1.672287
 C     6.370774    -0.534871     0.957319
 H     7.409880    -0.718745     0.674097
 H     1.345198    -0.591775    -1.542540
 H     2.868239    -0.379293    -0.681543
 C     2.117313    -2.393170    -0.689767
 C     1.158333    -3.286181    -0.197171
 H     0.248626    -2.884928     0.269394
 C     3.282598    -2.902408    -1.301917
 C     4.303521    -1.990585    -1.917065
 H     4.705764    -1.270011    -1.187834
 H     3.867010    -1.416069    -2.750574
 H     5.149680    -2.565259    -2.317825
 C     1.347955    -4.664241    -0.268191
 H     0.587343    -5.337545     0.134421
 C     3.458004    -4.289066    -1.359585
 H     4.363079    -4.684242    -1.829089
 C     2.509097    -5.169863    -0.845351
 H     2.676369    -6.248177    -0.903009
