  72
scf done:    -1690.054195
 C     1.835676    -2.434985     0.056519
 H     2.532092    -2.441263    -0.802887
 H     2.435038    -2.076650     0.913625
 C     1.398561    -3.864201     0.359802
 H     0.903665    -4.335382    -0.504620
 H     2.250428    -4.512694     0.638203
 H     0.679443    -3.901073     1.194614
Ir     0.240499    -1.049035    -0.271148
 C     1.897618     1.118243     2.101857
 C     3.474989     0.345100    -0.196413
 C     1.387634     2.305891    -0.481788
 C    -2.002166     1.455692    -1.612417
 C    -3.201864    -0.764394    -0.169490
 C    -1.836450     1.294416     1.322857
 P    -1.677417     0.275618    -0.214779
 P     1.738459     0.678057     0.314416
 C    -0.626235    -2.303168    -1.319247
 O    -1.128376    -2.996908    -2.097413
 H     2.775645     1.769971     2.250645
 H     1.008029     1.722122     2.350277
 C     1.960204    -0.098855     3.017369
 H     2.859617    -0.693174     2.784114
 H     1.106045    -0.758802     2.786945
 C     1.959822     0.273286     4.491218
 H     2.822102     0.910003     4.747150
 H     1.047742     0.830388     4.760775
 H     2.004828    -0.621126     5.130719
 H     4.127449     1.146121     0.190307
 H     3.773464    -0.585357     0.310787
 C     3.626015     0.182827    -1.704520
 H     3.435064     1.149082    -2.203086
 H     2.841218    -0.504144    -2.063793
 C     4.998513    -0.334445    -2.103939
 H     5.800609     0.338132    -1.758830
 H     5.186514    -1.327625    -1.666103
 H     5.089529    -0.429548    -3.196570
 H     1.223844     2.086521    -1.549880
 H     0.407938     2.628550    -0.093938
 C     2.410293     3.420486    -0.306073
 H     3.380223     3.105661    -0.724798
 H     2.587666     3.601131     0.767534
 C     1.970510     4.715774    -0.972525
 H     1.814792     4.573453    -2.053810
 H     1.021111     5.080988    -0.548785
 H     2.720281     5.511192    -0.844869
 H    -1.438587     2.373410    -1.372082
 H    -1.480507     1.010994    -2.476027
 C    -3.436443     1.799479    -1.999151
 H    -3.990333     2.181974    -1.126796
 H    -3.961855     0.881988    -2.309645
 C    -3.496398     2.819834    -3.126425
 H    -3.018340     3.768380    -2.832765
 H    -2.973009     2.452313    -4.023469
 H    -4.534868     3.044257    -3.414041
 H    -4.104340    -0.132115    -0.157123
 H    -3.214291    -1.316484    -1.124922
 C    -3.214033    -1.746190     0.996301
 H    -3.312052    -1.190299     1.945227
 H    -2.234298    -2.253042     1.042466
 C    -4.329304    -2.773456     0.886366
 H    -5.320042    -2.292648     0.839876
 H    -4.212410    -3.382395    -0.024104
 H    -4.330701    -3.458806     1.747529
 H    -1.601446     0.595046     2.144212
 H    -0.998155     2.010478     1.304916
 C    -3.137941     2.030692     1.608873
 H    -3.983743     1.324022     1.575411
 H    -3.328420     2.770860     0.814465
 C    -3.118196     2.732180     2.959165
 H    -2.965941     2.011784     3.778769
 H    -2.301306     3.469810     3.014068
 H    -4.061636     3.264633     3.153432
