  92
scf done:    -2599.963759
 C     1.307954    -2.800205     1.388161
 H     1.657423    -3.667594     0.800481
 H     2.231287    -2.288744     1.706406
 C     0.559784    -3.298750     2.619915
 H    -0.315217    -3.911691     2.350164
 H     1.203135    -3.916311     3.274721
 H     0.180536    -2.468167     3.239361
Ir     0.055301    -1.520049     0.215135
 C     1.890345     1.123302     1.874715
 C     3.418190    -0.528054     0.026525
 C     1.650158     1.419456    -0.971276
 C    -1.631589     1.085888    -1.880531
 C    -3.310470    -0.663756    -0.407442
 C    -1.628152     1.171240     1.030322
 P    -1.604732     0.005493    -0.380801
 P     1.740525     0.134834     0.331313
 C    -0.836290    -3.052432    -0.309271
 O    -1.282150    -4.031422    -0.732225
 H     2.704303     1.860117     1.766486
 H     0.950789     1.693698     1.949882
 C     2.077011     0.282331     3.129456
 H     2.993411    -0.324624     3.038777
 H     1.245273    -0.436374     3.201419
 C     2.141221     1.136280     4.386143
 H     2.992624     1.835657     4.351974
 H     1.225079     1.735418     4.510514
 H     2.259308     0.514242     5.286330
 C     4.580058     0.176713     0.375139
 H     4.510542     1.135514     0.894557
 C     3.554608    -1.739199    -0.653458
 H     2.648916    -2.294710    -0.916088
 C     5.834605    -0.322921     0.065622
 H     6.745247     0.213545     0.338550
 C     4.809749    -2.248791    -0.981731
 H     4.875517    -3.200208    -1.509773
 C     5.960982    -1.542069    -0.617616
 O     7.217830    -1.949367    -0.876512
 C     7.409230    -3.161841    -1.550606
 H     6.955942    -3.147975    -2.557478
 H     8.493412    -3.297915    -1.651666
 H     6.993163    -4.015120    -0.986657
 C     1.735250     0.997391    -2.309857
 H     1.897711    -0.061489    -2.528225
 C     1.437159     2.773798    -0.719671
 H     1.369760     3.141933     0.304883
 C     1.590171     1.893961    -3.352848
 H     1.646086     1.571170    -4.394007
 C     1.273018     3.689210    -1.763956
 H     1.094144     4.738456    -1.527527
 C     1.339216     3.250307    -3.089368
 O     1.173590     4.044481    -4.164221
 C     0.898176     5.402228    -3.964298
 H     1.716636     5.913337    -3.427260
 H     0.791788     5.852146    -4.959369
 H    -0.042138     5.551044    -3.403932
 H    -0.769149     1.762216    -1.788574
 H    -1.381319     0.415402    -2.719080
 C    -2.908100     1.861277    -2.177369
 H    -3.231712     2.419631    -1.282838
 H    -3.726079     1.154280    -2.388962
 C    -2.728144     2.818072    -3.347021
 H    -1.931365     3.552338    -3.143596
 H    -2.437855     2.277481    -4.262018
 H    -3.653735     3.373013    -3.564229
 C    -4.352485    -0.144868     0.374176
 H    -4.154610     0.672543     1.071184
 C    -3.605572    -1.702156    -1.294591
 H    -2.813987    -2.131875    -1.913206
 C    -5.638658    -0.656016     0.278645
 H    -6.452693    -0.262485     0.890443
 C    -4.894927    -2.217584    -1.409553
 H    -5.080547    -3.032112    -2.109840
 C    -5.922980    -1.697567    -0.614305
 O    -7.198191    -2.132387    -0.639346
 C    -7.535839    -3.182363    -1.501300
 H    -6.970459    -4.102279    -1.269812
 H    -8.605869    -3.377758    -1.355661
 H    -7.363105    -2.917903    -2.559718
 C    -1.654012     0.604139     2.320368
 H    -1.760009    -0.480207     2.421984
 C    -1.469829     2.552291     0.924068
 H    -1.436967     3.028665    -0.056903
 C    -1.515970     1.389404     3.450849
 H    -1.528051     0.952828     4.451185
 C    -1.313379     3.356873     2.057797
 H    -1.176174     4.431218     1.932381
 C    -1.326868     2.775347     3.328784
 O    -1.150646     3.452001     4.480667
 C    -0.920353     4.831879     4.424761
 H    -1.770817     5.371924     3.972758
 H    -0.793884     5.172423     5.460055
 H    -0.004418     5.070826     3.855686
