 108
scf done:    -2461.267084
 C    -1.395627    -2.960077    -0.781427
 H    -1.381244    -3.892059    -0.192498
 H    -2.455505    -2.655258    -0.796984
 C    -0.950204    -3.258132    -2.210326
 H     0.075115    -3.659851    -2.243792
 H    -1.606835    -3.996838    -2.708375
 H    -0.953832    -2.354728    -2.846243
Ir    -0.030791    -1.479570    -0.038544
 C    -2.574704     0.327311    -1.631050
 C    -3.321040    -0.901139     0.934782
 C    -1.922175     1.628107     0.917083
 C     2.143242     0.941384     1.488741
 C     3.392605    -0.907668    -0.454090
 C     1.537762     1.234696    -1.452228
 P     1.787358    -0.020181    -0.094889
 P    -1.892370    -0.035534     0.075952
 C     0.973945    -2.837021     0.704786
 O     1.510215    -3.637551     1.348128
 H    -2.444041    -0.622239    -2.171288
 H    -1.869192     1.041577    -2.083873
 C    -3.988633     0.801790    -1.734426
 C    -4.324721     2.153247    -1.575669
 H    -3.532801     2.893193    -1.436035
 C    -5.024736    -0.118117    -1.944695
 H    -4.779143    -1.173148    -2.094517
 C    -5.655337     2.565442    -1.586263
 H    -5.895527     3.623384    -1.455100
 C    -6.355891     0.290812    -1.954142
 H    -7.147828    -0.445340    -2.111937
 C    -6.677824     1.634162    -1.764519
 H    -7.721586     1.956318    -1.767644
 H    -3.724804    -1.529034     0.121010
 C    -4.478725    -0.028943     1.431511
 H    -4.821554     0.671271     0.657824
 H    -4.145347     0.580321     2.289119
 C    -5.645288    -0.906771     1.879438
 H    -6.469735    -0.272281     2.243836
 H    -6.038587    -1.449362     1.000765
 C    -5.224134    -1.905865     2.950631
 H    -6.070205    -2.557834     3.223191
 H    -4.949937    -1.354009     3.868388
 C    -4.029980    -2.737699     2.495881
 H    -4.334081    -3.387981     1.655592
 H    -3.698598    -3.411000     3.302990
 C    -2.870056    -1.858782     2.041553
 H    -2.491317    -1.280557     2.902297
 H    -2.023619    -2.464168     1.687233
 H    -2.986019     1.922759     0.888096
 C    -1.130503     2.746455     0.244420
 H    -1.399758     2.847243    -0.818711
 H    -0.059485     2.499818     0.269993
 C    -1.333376     4.075042     0.965922
 H    -0.756245     4.867849     0.462233
 H    -2.396364     4.369639     0.897086
 C    -0.929034     3.967409     2.431532
 H    -1.109947     4.920554     2.954001
 H     0.159474     3.783972     2.492668
 C    -1.668250     2.829514     3.125062
 H    -2.743931     3.077248     3.180076
 H    -1.321556     2.723081     4.165632
 C    -1.503590     1.505401     2.384985
 H    -0.454267     1.171912     2.429217
 H    -2.086581     0.723244     2.890726
 H     1.645887     0.316570     2.244368
 H     1.552046     1.865529     1.417107
 C     3.544615     1.233332     1.927836
 C     4.141703     2.483882     1.723316
 H     3.566532     3.284626     1.252630
 C     4.297644     0.238898     2.568052
 H     3.837974    -0.731789     2.774118
 C     5.461600     2.719186     2.101370
 H     5.907636     3.701457     1.927223
 C     5.618929     0.468845     2.942260
 H     6.188809    -0.324755     3.431651
 C     6.211053     1.707947     2.700725
 H     7.248092     1.889386     2.992078
 H     3.605296    -1.366701     0.530547
 C     4.603548    -0.050573    -0.837241
 H     4.720243     0.814063    -0.172481
 H     4.451210     0.348530    -1.855145
 C     5.878966    -0.890098    -0.818815
 H     6.742144    -0.265372    -1.101083
 H     6.064876    -1.222490     0.218148
 C     5.773185    -2.102909    -1.735750
 H     6.678641    -2.726598    -1.656509
 H     5.725982    -1.757222    -2.784702
 C     4.526243    -2.925607    -1.430444
 H     4.622246    -3.390728    -0.432788
 H     4.427081    -3.754746    -2.149733
 C     3.267501    -2.065125    -1.453667
 H     3.125389    -1.662365    -2.469611
 H     2.375792    -2.669790    -1.239411
 H     0.486876     1.516365    -1.285726
 C     1.564672     0.574677    -2.833086
 H     0.955164    -0.344836    -2.819299
 H     2.594160     0.268600    -3.081329
 C     1.066458     1.541142    -3.902251
 H     1.112749     1.063751    -4.894259
 H     0.000294     1.768804    -3.718075
 C     1.869076     2.837181    -3.893797
 H     1.479770     3.538330    -4.649631
 H     2.912453     2.616267    -4.183639
 C     1.861079     3.486030    -2.514388
 H     0.830907     3.805045    -2.270801
 H     2.476051     4.400678    -2.514209
 C     2.350092     2.527225    -1.430358
 H     3.420297     2.312072    -1.577530
 H     2.264120     3.015116    -0.447485
