  48
scf done:    -1375.803492
 C    -2.820016    -0.877958     0.229852
 H    -3.097094    -1.938721     0.355288
 H    -3.166198    -0.389831     1.156869
 C    -3.591624    -0.319176    -0.962218
 H    -3.324940    -0.838277    -1.896777
 H    -4.686385    -0.417802    -0.837473
 H    -3.383617     0.749213    -1.139175
Ir    -0.682829    -0.761402     0.121740
 C    -0.301017     2.688859    -0.235659
 C    -2.427835     2.063243     1.576617
 C     0.244666     1.897045     2.453907
 C     2.700173     0.513345    -0.306519
 C     2.265414    -1.262230     1.931147
 C     2.355980    -2.305453    -0.702329
 P     1.637099    -0.903344     0.239858
 P    -0.801504     1.431303     1.015719
 C    -0.799211    -2.252087    -0.965128
 O    -0.894469    -3.122144    -1.717567
 H    -0.451881     3.694551     0.195937
 H     0.783516     2.563831    -0.382946
 C    -1.019092     2.541672    -1.571035
 H    -2.098947     2.718828    -1.433234
 H    -0.926045     1.491340    -1.898072
 C    -0.478409     3.484123    -2.633985
 H    -0.576632     4.538875    -2.329559
 H     0.590216     3.294733    -2.826430
 H    -1.014137     3.361183    -3.587242
 H    -3.173641     1.938749     0.780395
 H    -2.766426     1.487764     2.449753
 H    -2.351684     3.126840     1.848669
 H     0.092045     2.950618     2.733965
 H    -0.011594     1.255400     3.309339
 H     1.305906     1.742993     2.214915
 H     2.325030     0.790820    -1.306839
 H     2.438227     1.358575     0.352533
 C     4.212163     0.332519    -0.334592
 H     4.476911    -0.470992    -1.040992
 H     4.569649    -0.002226     0.653948
 C     4.941168     1.608939    -0.729152
 H     4.626542     1.954720    -1.726768
 H     4.733086     2.424454    -0.017874
 H     6.031360     1.460383    -0.756066
 H     2.006602    -0.438372     2.610550
 H     1.754973    -2.166247     2.293057
 H     3.353235    -1.427633     1.955242
 H     1.841936    -3.228440    -0.399077
 H     2.169808    -2.155237    -1.775816
 H     3.435697    -2.421403    -0.528686
