 106
scf done:    -2983.163418
 C     1.787556    -2.238920    -2.177654
 H     1.593122    -2.407222    -3.249991
 H     2.758327    -1.721941    -2.143531
 C     1.883711    -3.592507    -1.480200
 H     0.944665    -4.163110    -1.567655
 H     2.686824    -4.223121    -1.906256
 H     2.090357    -3.499639    -0.400409
Ir     0.257744    -1.036602    -1.296825
 C     1.799834     0.262886     1.745709
 C     3.658479     0.003134    -0.438508
 C     1.633233     2.014773    -0.582373
 C    -2.480264     1.097272    -1.605478
 C    -2.905554    -1.195786     0.177158
 C    -1.543609     1.102013     1.134100
 P    -1.626878     0.010110    -0.340025
 P     1.875299     0.261343    -0.126352
 C    -0.802879    -1.663136    -2.667988
 O    -1.424261    -1.956269    -3.597761
 H     2.291899     1.175273     2.107704
 H     0.732605     0.337373     1.996911
 C     2.455170    -0.934293     2.365562
 C     3.756465    -0.803680     2.864664
 H     4.239563     0.176108     2.821926
 C     1.827374    -2.198322     2.404324
 C     0.431414    -2.395261     1.904320
 H     0.349107    -2.193132     0.812369
 H    -0.274411    -1.709080     2.394896
 H     0.084546    -3.423090     2.075194
 C     4.452661    -1.891046     3.382843
 H     5.469303    -1.759964     3.760412
 C     2.545783    -3.284212     2.919160
 H     2.064065    -4.265547     2.942631
 C     3.845429    -3.143759     3.400183
 H     4.378106    -4.012448     3.794762
 C     4.494380     1.012879    -0.938369
 H     4.083554     1.998303    -1.165916
 C     4.222010    -1.253747    -0.190325
 H     3.598581    -2.070017     0.177303
 C     5.844112     0.780310    -1.157681
 H     6.497825     1.562737    -1.547574
 C     5.575937    -1.498753    -0.400930
 H     5.970486    -2.491877    -0.187119
 C     6.399781    -0.476751    -0.885319
 O     7.718945    -0.611770    -1.122199
 C     8.322798    -1.851857    -0.882542
 H     7.885057    -2.649791    -1.507841
 H     9.383676    -1.740784    -1.140535
 H     8.242702    -2.150080     0.177898
 C     1.007799     2.293198    -1.809095
 H     0.690200     1.446131    -2.428162
 C     2.036430     3.088730     0.212097
 H     2.539507     2.915944     1.165616
 C     0.766202     3.598236    -2.207876
 H     0.274470     3.821789    -3.156538
 C     1.797945     4.407637    -0.173157
 H     2.116871     5.218902     0.481445
 C     1.150524     4.670354    -1.387204
 O     0.864924     5.902069    -1.842947
 C     1.214145     7.012833    -1.063913
 H     2.304875     7.075894    -0.904834
 H     0.884464     7.900858    -1.617407
 H     0.711483     6.997875    -0.080718
 H    -1.844295     1.992929    -1.674477
 H    -2.353869     0.560824    -2.554822
 C    -3.909460     1.454502    -1.350305
 C    -4.221491     2.556750    -0.544404
 H    -3.410303     3.173305    -0.151536
 C    -4.956044     0.662235    -1.870627
 C    -4.681137    -0.526311    -2.744205
 H    -4.103391    -1.296045    -2.209172
 H    -4.095860    -0.256439    -3.637457
 H    -5.618780    -0.986721    -3.083843
 C    -5.538819     2.869145    -0.221219
 H    -5.755356     3.730068     0.415699
 C    -6.274104     0.996539    -1.542170
 H    -7.085763     0.381376    -1.940186
 C    -6.572568     2.079589    -0.719339
 H    -7.612380     2.310654    -0.475589
 C    -4.120912    -0.803722     0.770603
 H    -4.317302     0.250070     0.976643
 C    -2.688211    -2.559167    -0.036983
 H    -1.739868    -2.876379    -0.479451
 C    -5.084098    -1.740673     1.102765
 H    -6.032967    -1.440919     1.551092
 C    -3.648889    -3.513715     0.295569
 H    -3.438884    -4.566653     0.107401
 C    -4.861478    -3.105274     0.860837
 O    -5.857335    -3.940372     1.209454
 C    -5.697058    -5.313646     0.985679
 H    -4.845021    -5.725784     1.554480
 H    -6.619954    -5.798177     1.328605
 H    -5.550776    -5.540255    -0.085009
 C    -1.098467     2.430489     1.031095
 H    -0.885160     2.868633     0.054671
 C    -1.789076     0.600956     2.416942
 H    -2.150204    -0.422358     2.537674
 C    -0.901365     3.213457     2.157205
 H    -0.550280     4.243150     2.070431
 C    -1.586365     1.373189     3.560318
 H    -1.787716     0.934823     4.537862
 C    -1.133714     2.691065     3.436724
 O    -0.900314     3.518533     4.472984
 C    -1.101935     3.041588     5.774454
 H    -0.452516     2.177243     5.999440
 H    -0.846633     3.864101     6.454419
 H    -2.152918     2.749973     5.946811
