  92
scf done:    -2600.103704
 C     1.145803    -3.036771     0.884460
 H     1.662456    -3.675409     0.147772
 H     1.951435    -2.614875     1.505769
 C     0.234003    -3.884406     1.765458
 H    -0.544035    -4.405302     1.184096
 H     0.797965    -4.656583     2.320672
 H    -0.294143    -3.274132     2.517415
Ir     0.052167    -1.496817    -0.141729
 C     1.128534     0.841879     2.339706
 O     3.034185    -0.394835     1.022948
 O     1.645107     1.351282    -0.304645
 C    -0.992892     1.118180    -2.397061
 O    -2.870946    -0.287851    -1.238286
 O    -1.482130     1.264071     0.330448
 P    -1.300310     0.142274    -0.894054
 P     1.473761     0.071715     0.736377
 C    -0.759272    -2.878347    -1.136200
 O    -1.165712    -3.704130    -1.821580
 H     1.927902     1.554994     2.595257
 H     0.201242     1.412883     2.168174
 C     0.925007    -0.203531     3.431987
 H     1.861628    -0.766863     3.574435
 H     0.179744    -0.940722     3.086764
 C     0.477201     0.412939     4.746854
 H     1.218485     1.134679     5.125522
 H    -0.477246     0.950352     4.629208
 H     0.335679    -0.357208     5.519858
 C     3.762866    -1.182192     0.163867
 C     3.475473    -1.261485    -1.195069
 H     2.642388    -0.689491    -1.610168
 C     4.824292    -1.897411     0.717014
 H     5.020838    -1.815292     1.787237
 C     4.235975    -2.091699    -2.027854
 C     3.887447    -2.199915    -3.483431
 H     2.877098    -2.620582    -3.611197
 H     3.889579    -1.211370    -3.968826
 H     4.594947    -2.845511    -4.021827
 C     5.590684    -2.707772    -0.112051
 H     6.423219    -3.275961     0.309583
 C     5.296967    -2.811142    -1.472445
 H     5.900018    -3.460537    -2.111882
 C     2.343627     2.518354    -0.133476
 C     3.529059     2.598448     0.595887
 H     3.935364     1.701161     1.064064
 C     1.829740     3.648222    -0.775703
 H     0.909495     3.561604    -1.355237
 C     4.206389     3.819333     0.712795
 C     5.476131     3.890339     1.510642
 H     5.283388     3.702388     2.579212
 H     6.198706     3.130545     1.175039
 H     5.952579     4.876489     1.423759
 C     2.504866     4.858155    -0.664518
 H     2.106916     5.743656    -1.165899
 C     3.681732     4.948377     0.078226
 H     4.204143     5.904680     0.159132
 H    -0.019121     1.599166    -2.207597
 H    -0.791538     0.338571    -3.153522
 C    -2.039633     2.101506    -2.908226
 H    -2.182054     2.912988    -2.179152
 H    -3.009359     1.585363    -2.983765
 C    -1.648821     2.689198    -4.255779
 H    -0.689153     3.227739    -4.195022
 H    -1.536918     1.903657    -5.020331
 H    -2.407329     3.400608    -4.615880
 C    -3.529559    -1.262297    -0.535247
 C    -3.322728    -1.450660     0.831203
 H    -2.623391    -0.803771     1.365425
 C    -4.426885    -2.064950    -1.238173
 H    -4.563580    -1.896878    -2.307546
 C    -3.992061    -2.472923     1.513699
 C    -3.707170    -2.708607     2.967916
 H    -2.733921    -3.211931     3.090916
 H    -3.655812    -1.761853     3.526531
 H    -4.473801    -3.343145     3.434043
 C    -5.108260    -3.067794    -0.556733
 H    -5.811812    -3.704463    -1.098373
 C    -4.890630    -3.276039     0.805253
 H    -5.423753    -4.075679     1.325532
 C    -2.254583     2.395730     0.348542
 C    -3.643626     2.325319     0.267512
 H    -4.125408     1.352422     0.162378
 C    -1.609371     3.622570     0.512535
 H    -0.521352     3.648146     0.589668
 C    -4.413170     3.493636     0.311312
 C    -5.907169     3.409592     0.191032
 H    -6.203285     3.107651    -0.826713
 H    -6.321342     2.659316     0.881670
 H    -6.385027     4.375200     0.406907
 C    -2.373326     4.783978     0.564876
 H    -1.877507     5.749497     0.691445
 C    -3.762436     4.723489     0.457242
 H    -4.352171     5.642801     0.496347
