  60
scf done:    -1981.171290
 C    -3.677339     1.034333     0.289781
 H    -4.621193     0.492540     0.460566
 H    -3.517876     1.654231     1.187711
 C    -3.841033     1.927963    -0.935906
 H    -3.977135     1.343901    -1.860110
 H    -4.714964     2.599995    -0.845769
 H    -2.963108     2.576937    -1.100883
Ir    -2.010682    -0.305513     0.101916
 C     0.212217     2.156429    -1.156786
 O    -1.299943     2.821032     1.088981
 O     0.628297     1.161928     1.390597
 C     0.789282    -2.085626     1.296107
 O    -0.390292    -3.159679    -0.782371
 O     0.887631    -0.974783    -1.251507
 P    -0.199675    -1.633014    -0.188786
 P    -0.612776     1.522864     0.376299
 C    -3.251314    -1.702688     0.189492
 O    -4.013442    -2.553677     0.317518
 H    -0.480465     2.869269    -1.630383
 H     0.232499     1.253439    -1.785929
 C     1.598312     2.708498    -1.005938
 C     2.665297     1.829670    -0.769079
 H     2.461145     0.759175    -0.716268
 C     1.865830     4.080003    -1.080737
 H     1.051914     4.778749    -1.291413
 C     3.956340     2.314126    -0.583158
 H     4.773073     1.612131    -0.396060
 C     3.160074     4.565994    -0.897040
 H     3.349465     5.640295    -0.961110
 C     4.208994     3.685446    -0.638700
 H     5.222551     4.065970    -0.492235
 C    -1.036393     4.181277     0.844810
 H     0.017717     4.444388     1.025816
 H    -1.303308     4.464726    -0.186695
 H    -1.671449     4.757929     1.531200
 C     1.258351     2.107891     2.231620
 H     1.810381     2.867447     1.655425
 H     0.522482     2.598385     2.886902
 H     1.973875     1.553796     2.854454
 H     0.219399    -2.899050     1.771259
 H     0.715592    -1.197404     1.938532
 C     2.214457    -2.454248     1.038660
 C     3.218288    -1.483710     1.151683
 H     2.947541    -0.476622     1.478008
 C     2.569861    -3.741052     0.616297
 H     1.791359    -4.501089     0.514628
 C     4.541358    -1.786024     0.836660
 H     5.311822    -1.016385     0.931897
 C     3.892322    -4.044709     0.301604
 H     4.152976    -5.053368    -0.028628
 C     4.882727    -3.067548     0.404618
 H     5.919449    -3.307039     0.156669
 C    -1.208437    -3.376227    -1.913277
 H    -1.968803    -2.583726    -2.016380
 H    -0.599825    -3.403644    -2.832561
 H    -1.714844    -4.343926    -1.790430
 C     1.854118    -1.697840    -1.992878
 H     2.860294    -1.537110    -1.577296
 H     1.644507    -2.776675    -1.983750
 H     1.826315    -1.330854    -3.030132
