  76
scf done:    -2142.166298
 C     1.665391    -2.796035    -0.238658
 H     2.364938    -2.781244    -1.093152
 H     2.284702    -2.539581     0.639750
 C     1.099983    -4.198170    -0.054527
 H     0.580035    -4.555542    -0.958342
 H     1.890911    -4.935207     0.178875
 H     0.370198    -4.240773     0.771114
Ir     0.172295    -1.296120    -0.446734
 C     1.484959     0.905635     2.115705
 C     3.458916    -0.205130     0.306364
 C     1.698758     1.792793    -0.641772
 C    -2.267356     0.767331    -1.940121
 C    -3.182060    -0.803881     0.340417
 C    -1.681563     1.568759     0.778903
 P    -1.712070     0.092627    -0.311407
 P     1.690231     0.281323     0.396735
 C    -0.599743    -2.277337    -1.813962
 O    -0.993796    -2.752503    -2.792557
 H     2.402826     1.415372     2.451685
 H     0.690989     1.667081     2.075787
 C     1.085776    -0.214101     3.071742
 H     1.825429    -1.031870     3.029872
 H     0.144810    -0.660334     2.706393
 C     0.924824     0.267526     4.503801
 H     1.870375     0.671374     4.900568
 H     0.172421     1.069087     4.567188
 H     0.606590    -0.549310     5.169000
 C     3.989107    -0.490216    -0.958519
 C     4.278684    -0.340088     1.430158
 C     6.128403    -1.016483     0.029670
 C     5.606674    -0.745661     1.291503
 C     5.314797    -0.886518    -1.096635
 H     3.350604    -0.405771    -1.841697
 H     5.714891    -1.101997    -2.090188
 H     7.168495    -1.333191    -0.077947
 H     6.234945    -0.850024     2.179391
 H     3.890351    -0.135254     2.429618
 C     2.117474     3.034590    -0.153199
 C     1.270812     1.687119    -1.970037
 C     1.634084     4.052949    -2.291681
 C     1.240254     2.812190    -2.792537
 C     2.077494     4.160361    -0.973154
 H     2.463731     3.134128     0.877624
 H     2.394370     5.129300    -0.579574
 H     1.602043     4.938014    -2.931779
 H     0.901339     2.719973    -3.827448
 H     0.937962     0.706657    -2.328840
 H    -1.408051     1.357696    -2.300464
 H    -2.309442    -0.115049    -2.600463
 C    -3.551759     1.576651    -2.034003
 H    -3.547375     2.376212    -1.273860
 H    -4.411022     0.929890    -1.796939
 C    -3.738035     2.187668    -3.415356
 H    -2.913006     2.875719    -3.661373
 H    -3.762168     1.410251    -4.195510
 H    -4.678090     2.756314    -3.481131
 C    -3.113661    -2.190681     0.513548
 C    -4.369779    -0.136920     0.678573
 C    -5.394719    -2.232259     1.307136
 C    -5.468471    -0.846913     1.154426
 C    -4.214892    -2.901110     0.991027
 H    -2.177413    -2.704876     0.277864
 H    -4.144626    -3.983692     1.120310
 H    -6.257612    -2.788041     1.682319
 H    -6.387276    -0.314802     1.412836
 H    -4.430270     0.949693     0.590281
 C    -1.984747     1.439633     2.142587
 C    -1.251139     2.813480     0.300861
 C    -1.424953     3.760663     2.519031
 C    -1.123044     3.899268     1.165742
 C    -1.860175     2.526732     3.003903
 H    -2.323828     0.477340     2.533388
 H    -2.105889     2.408899     4.062151
 H    -1.325303     4.612926     3.195244
 H    -0.778632     4.858770     0.773133
 H    -0.993483     2.942767    -0.752216
