  60
scf done:    -1532.933663
 C    -2.337336    -1.755474     1.039549
 H    -2.176818    -2.702861     1.584262
 H    -2.737077    -1.067448     1.805664
 C    -3.414798    -1.960112    -0.022803
 H    -3.122180    -2.723502    -0.761263
 H    -4.378924    -2.282705     0.413616
 H    -3.613126    -1.037284    -0.592486
Ir    -0.462854    -1.105227     0.198953
 C    -2.422317     1.688950     0.965667
 C    -1.037462     0.555105     3.242528
 C     0.320965     2.283254     1.494072
 C     2.916060     0.066893     0.081358
 C     2.124973    -1.604136    -2.109178
 C     1.187228     1.058694    -2.034975
 P     1.430729    -0.387236    -0.922182
 P    -0.849644     0.864666     1.447926
 C    -0.302366    -2.828369    -0.459634
 O    -0.192220    -3.921922    -0.810597
 H    -2.585596     2.570264     1.610850
 H    -3.221062     0.964633     1.187097
 C    -2.433534     2.067845    -0.509976
 H    -1.581933     2.737035    -0.724588
 H    -2.257240     1.154484    -1.107855
 C    -3.713785     2.756748    -0.989581
 H    -3.866731     3.652183    -0.356942
 C    -3.546644     3.225157    -2.430776
 H    -2.685194     3.902983    -2.538770
 H    -4.441530     3.758173    -2.787303
 H    -3.381231     2.366247    -3.102318
 C    -4.943004     1.866073    -0.848925
 H    -5.848312     2.385666    -1.198824
 H    -5.121263     1.560530     0.192793
 H    -4.830869     0.947839    -1.448690
 H    -1.788066    -0.228630     3.406652
 H    -0.076198     0.195308     3.636193
 H    -1.332362     1.471912     3.775574
 H    -0.105178     3.112526     2.079201
 H     1.262273     1.968807     1.966471
 H     0.547726     2.642988     0.482010
 H     3.186394    -0.861994     0.613126
 H     2.546584     0.750821     0.858734
 C     4.122445     0.656281    -0.633367
 H     4.429260    -0.009344    -1.457768
 H     3.847484     1.616995    -1.104959
 C     5.338985     0.892989     0.268505
 H     5.597005    -0.076521     0.734958
 C     6.534222     1.346521    -0.561884
 H     6.777127     0.617800    -1.350963
 H     7.431519     1.477926     0.062380
 H     6.326874     2.312252    -1.052756
 C     5.047026     1.887679     1.386892
 H     5.940023     2.058827     2.007459
 H     4.246083     1.538804     2.055903
 H     4.738884     2.862703     0.972265
 H     2.431958    -2.507578    -1.562772
 H     1.334316    -1.891741    -2.816920
 H     2.982905    -1.205858    -2.670829
 H     0.924818     1.951710    -1.451361
 H     2.076781     1.275907    -2.645048
 H     0.340204     0.831957    -2.698373
