  72
scf done:    -1690.046982
 C    -3.604844    -0.314208    -0.402029
 H    -4.202352    -1.238025    -0.462819
 H    -4.084182     0.273670     0.397027
 C    -3.713754     0.417413    -1.737205
 H    -3.309313    -0.188480    -2.564260
 H    -4.760525     0.661596    -2.000495
 H    -3.153690     1.369913    -1.748638
Ir    -1.547281    -0.752685    -0.047351
 C    -0.365459     2.752750    -0.454393
 C    -2.748733     2.402615     1.097841
 C    -0.234405     1.569455     2.199282
 C     2.029811    -0.840423     0.791298
 C     0.998697    -3.136211    -0.626026
 C     1.183126    -0.624784    -2.041149
 P     0.688329    -1.325096    -0.398728
 P    -1.204663     1.494581     0.630830
 C    -2.045849    -2.492534     0.287957
 O    -2.359633    -3.541158     0.664178
 H    -0.730599     3.756632    -0.182134
 H    -0.737878     2.548548    -1.470951
 C     1.156158     2.744746    -0.416610
 H     1.492724     3.010100     0.599071
 H     1.535597     1.726560    -0.601780
 C     1.835783     3.694829    -1.407654
 H     1.421332     4.706264    -1.235987
 C     3.334707     3.746211    -1.132397
 H     3.546409     4.062588    -0.099006
 H     3.846162     4.446269    -1.810700
 H     3.791719     2.752292    -1.275336
 C     1.569113     3.316692    -2.860491
 H     2.043586     4.033592    -3.547929
 H     0.495266     3.295989    -3.098576
 H     1.982747     2.319793    -3.086983
 H    -3.344302     1.687815     1.684948
 C    -2.595599     3.713124     1.852294
 H    -1.970702     4.443995     1.315813
 H    -2.152435     3.565252     2.848488
 H    -3.308715     2.547400     0.160459
 H    -3.580026     4.182514     2.003070
 H    -0.139525     2.622127     2.513230
 C    -0.838855     0.707192     3.296463
 H    -0.970588    -0.325867     2.937154
 H    -1.829523     1.074282     3.606402
 H     0.778689     1.219585     1.959562
 H    -0.194841     0.696028     4.189257
 H     1.562786    -0.918968     1.786822
 H     2.181053     0.236626     0.620506
 C     3.364602    -1.575008     0.800511
 H     3.203356    -2.610987     1.140438
 H     3.782790    -1.652301    -0.216735
 C     4.415613    -0.923013     1.706380
 H     3.956225    -0.786980     2.703843
 C     5.622270    -1.840739     1.866356
 H     5.332536    -2.819378     2.279463
 H     6.376703    -1.401611     2.537295
 H     6.108371    -2.020806     0.892809
 C     4.846229     0.448782     1.195785
 H     5.596231     0.902419     1.861700
 H     4.005918     1.155899     1.123507
 H     5.300312     0.366755     0.193508
 H     0.683346    -3.608303     0.319413
 C     0.255245    -3.752127    -1.801312
 H     0.676011    -3.423178    -2.763751
 H    -0.811358    -3.482798    -1.792381
 H     2.080912    -3.314276    -0.724018
 H     0.324346    -4.849943    -1.771117
 H     0.855114     0.425097    -2.032395
 C     2.627836    -0.733517    -2.498441
 H     2.982418    -1.775716    -2.511009
 H     3.305632    -0.156952    -1.850523
 H     0.504224    -1.120632    -2.753498
 H     2.740621    -0.338147    -3.520448
