  88
scf done:    -2696.075509
 C     2.704711     2.233612    -2.090468
 H     2.425666     3.303051    -2.110379
 H     3.482408     2.170057    -1.305340
 C     3.329291     1.867496    -3.434072
 H     2.628534     2.041157    -4.265668
 H     4.239314     2.457878    -3.648782
 H     3.612231     0.803715    -3.490498
Ir     0.913850     1.182616    -1.534884
 C     1.756402    -1.539218     0.800406
 C     3.869645    -0.616142    -0.911168
 C     2.940802     1.005748     1.339550
 C    -2.342375     1.920584    -0.796551
 C    -1.960807    -0.670863    -2.190753
 C    -1.459125    -0.351346     0.784902
 P    -1.215847     0.456439    -0.883832
 P     2.320225    -0.021451    -0.072277
 C     0.146408     1.884021    -3.067528
 O    -0.293515     2.230640    -4.077772
 H     2.603467    -1.933886     1.386923
 H     0.990940    -1.222525     1.525077
 C     1.201803    -2.603227    -0.135667
 H     1.996007    -2.951386    -0.816915
 H     0.448395    -2.137532    -0.793465
 C     0.611192    -3.793197     0.603710
 H     1.360275    -4.265508     1.258565
 H    -0.236285    -3.491500     1.240452
 H     0.247125    -4.563926    -0.092897
 H     3.530402    -1.315265    -1.690418
 H     4.274834     0.258466    -1.436903
 C     4.897311    -1.236274    -0.015779
 C     5.860182    -0.441470     0.621780
 H     5.879325     0.634579     0.430894
 C     4.919755    -2.615857     0.228896
 H     4.196719    -3.264120    -0.272477
 C     6.802473    -0.993335     1.484708
 H     7.556481    -0.377890     1.978634
 C     5.854838    -3.186515     1.088660
 H     5.878502    -4.261301     1.277139
 C     6.784427    -2.364041     1.712141
 F     7.681526    -2.900648     2.536618
 H     3.569638     0.392350     2.001789
 H     3.577921     1.787731     0.898033
 C     1.786417     1.620084     2.075898
 C     1.077138     2.686422     1.503443
 H     1.378328     3.068378     0.522894
 C     1.358294     1.119409     3.309609
 H     1.896811     0.286675     3.769963
 C    -0.017954     3.248343     2.151200
 H    -0.571845     4.082114     1.715761
 C     0.256636     1.665514     3.968852
 H    -0.089047     1.278821     4.928829
 C    -0.412101     2.728143     3.378580
 F    -1.480394     3.248340     3.988383
 H    -2.103644     2.386665     0.174699
 H    -1.966956     2.627585    -1.552805
 C    -3.847435     1.739116    -0.951136
 H    -4.204998     0.905306    -0.328995
 H    -4.068339     1.466017    -1.996517
 C    -4.611034     3.003880    -0.590633
 H    -4.459586     3.262698     0.469355
 H    -4.277185     3.862039    -1.195711
 H    -5.692830     2.880046    -0.750151
 H    -2.396222     0.016315    -2.933060
 H    -1.073479    -1.106182    -2.672529
 C    -2.921555    -1.761376    -1.827136
 C    -2.435677    -3.020396    -1.447352
 H    -1.358156    -3.196441    -1.433190
 C    -4.310566    -1.588216    -1.879084
 H    -4.723548    -0.628668    -2.192722
 C    -3.292666    -4.060353    -1.095410
 H    -2.913474    -5.039704    -0.797931
 C    -5.184285    -2.615716    -1.536403
 H    -6.266575    -2.479787    -1.573319
 C    -4.664099    -3.840602    -1.137361
 F    -5.494927    -4.825495    -0.799461
 H    -1.138607    -1.396081     0.669583
 H    -0.703595     0.153726     1.407313
 C    -2.795404    -0.282419     1.465713
 C    -3.152032     0.841575     2.223343
 H    -2.443512     1.660005     2.347468
 C    -3.716056    -1.333716     1.382577
 H    -3.455723    -2.235926     0.828190
 C    -4.396731     0.941293     2.837164
 H    -4.670321     1.817865     3.426969
 C    -4.966247    -1.252794     1.989434
 H    -5.685770    -2.070378     1.916972
 C    -5.297957    -0.107248     2.701268
 F    -6.495015    -0.020209     3.280355
