  52
scf done:    -1676.548537
 C     2.096130    -2.103630     0.027133
 H     1.951578    -3.144567    -0.303975
 H     2.819248    -1.683772    -0.695454
 C     2.701586    -2.117636     1.428027
 H     2.006126    -2.550105     2.165378
 H     3.632783    -2.712445     1.476817
 H     2.941349    -1.106125     1.797387
Ir     0.228998    -1.038740     0.002526
 C     2.923003     1.093422    -0.649110
 O     0.517412     2.213144    -0.134664
 O     1.863135     1.297221     1.871396
 C    -2.419199     1.068647    -1.086500
 O    -3.089599    -0.854114     0.567787
 O    -1.680273     1.032266     1.601426
 P    -1.745754     0.056948     0.277527
 P     1.399218     0.903098     0.343929
 C    -0.507573    -2.439908    -0.987675
 O    -0.916575    -3.224212    -1.725720
 H     3.400502     2.064634    -0.437853
 H     3.619390     0.310551    -0.303642
 C     2.640757     0.938829    -2.140248
 H     1.959748     1.744553    -2.460711
 H     2.084016    -0.000662    -2.295823
 C     3.906397     0.950441    -2.981045
 H     4.469932     1.889206    -2.854027
 H     4.576041     0.121462    -2.701676
 H     3.674535     0.843469    -4.051396
 C     0.863786     3.530091     0.211098
 H     0.855520     3.669181     1.304201
 H     1.853936     3.821160    -0.183620
 H     0.110755     4.195648    -0.233764
 C     3.076896     1.889768     2.265228
 H     3.940121     1.243294     2.036158
 H     3.239335     2.876127     1.798699
 H     3.029637     2.026871     3.354580
 H    -1.788694     1.973643    -1.091144
 H    -2.123430     0.505816    -1.988888
 C    -3.909308     1.385326    -1.135619
 H    -4.199488     2.003003    -0.271658
 H    -4.474765     0.446087    -1.037148
 C    -4.296807     2.101329    -2.420762
 H    -3.756793     3.056023    -2.528121
 H    -4.058589     1.488778    -3.305036
 H    -5.374833     2.322167    -2.449148
 C    -3.010193    -1.916913     1.493276
 H    -2.058382    -2.466028     1.388446
 H    -3.088662    -1.547287     2.529481
 H    -3.847452    -2.599427     1.291932
 C    -2.768403     1.795853     2.059016
 H    -2.871889     2.732642     1.484402
 H    -3.716253     1.235585     2.000368
 H    -2.575352     2.054629     3.110143
