  84
scf done:    -2843.563416
 C    -1.637260    -3.049194    -1.331511
 H    -1.437708    -4.010335    -0.824419
 H    -2.618951    -2.733343    -0.933018
 C    -1.765977    -3.299370    -2.831929
 H    -0.848833    -3.740895    -3.252695
 H    -2.596563    -3.989060    -3.070673
 H    -1.945893    -2.371096    -3.400114
Ir    -0.058359    -1.695151    -0.770495
 C    -2.961022    -0.020106    -1.696455
 C    -2.852952    -0.844412     1.157851
 C    -1.524210     1.539188     0.220794
 C     1.449977     0.385075     1.629880
 C     3.293313    -1.172598     0.118812
 C     2.072542     1.062704    -1.223002
 P     1.682197    -0.319144    -0.083342
 P    -1.836266    -0.217289    -0.221944
 C     1.103012    -2.976530    -1.442802
 O     1.795004    -3.771670    -1.904794
 H    -3.042863    -1.024565    -2.129788
 H    -2.380799     0.587349    -2.407692
 C    -4.309583     0.565403    -1.426657
 C    -4.496176     1.947241    -1.287743
 H    -3.650424     2.623581    -1.430650
 C    -5.410912    -0.281052    -1.247768
 H    -5.275789    -1.361050    -1.351072
 C    -5.746354     2.464213    -0.954381
 H    -5.873494     3.544004    -0.845562
 C    -6.662581     0.234930    -0.921231
 H    -7.508859    -0.442122    -0.783100
 C    -6.832734     1.609833    -0.764632
 H    -7.812567     2.016768    -0.504005
 C    -4.021786    -0.214983     1.615522
 H    -4.377687     0.704556     1.148612
 C    -2.415161    -2.012236     1.798464
 H    -1.501389    -2.496076     1.434970
 C    -4.741574    -0.747782     2.679611
 H    -5.654265    -0.273176     3.043772
 C    -3.126398    -2.552341     2.865282
 H    -2.798459    -3.462256     3.370586
 C    -4.285007    -1.912381     3.287947
 F    -4.973522    -2.421283     4.304532
 C    -1.780045     2.073690     1.489157
 H    -2.214943     1.447720     2.269951
 C    -0.939945     2.368458    -0.747678
 H    -0.705587     1.976959    -1.739028
 C    -1.475341     3.401598     1.781682
 H    -1.668866     3.826240     2.768266
 C    -0.626290     3.694165    -0.470376
 H    -0.157969     4.336823    -1.217637
 C    -0.902614     4.195739     0.796646
 F    -0.592367     5.457690     1.078311
 H     1.328761    -0.526644     2.237201
 H     0.470555     0.880170     1.609467
 C     2.486274     1.294821     2.214290
 C     2.222380     2.665968     2.337032
 H     1.251939     3.050746     2.016721
 C     3.733364     0.816720     2.640098
 H     3.956045    -0.250019     2.572961
 C     3.182088     3.539809     2.842357
 H     2.953225     4.605156     2.924792
 C     4.695627     1.690332     3.142121
 H     5.663755     1.298117     3.462832
 C     4.427651     3.055411     3.239836
 H     5.184261     3.737911     3.633994
 C     4.502352    -0.690268    -0.389642
 H     4.521315     0.227586    -0.979638
 C     3.297534    -2.365124     0.856847
 H     2.351736    -2.770679     1.228842
 C     5.696493    -1.368520    -0.152719
 H     6.647500    -1.004870    -0.545835
 C     4.482394    -3.045443     1.111935
 H     4.499637    -3.974210     1.684838
 C     5.671693    -2.532839     0.602865
 F     6.809738    -3.180231     0.838968
 C     1.559160     0.940902    -2.522825
 H     0.967104     0.049492    -2.762206
 C     2.832386     2.196733    -0.903129
 H     3.268851     2.310266     0.088738
 C     1.768904     1.932588    -3.476478
 H     1.374484     1.847651    -4.490781
 C     3.039067     3.202750    -1.843753
 H     3.618518     4.096050    -1.603420
 C     2.500201     3.059334    -3.117285
 F     2.694367     4.021061    -4.015325
