  96
scf done:    -2603.914964
 C    -2.225250     0.393868    -2.596004
 H    -2.067166     0.087473    -3.642409
 H    -3.172854    -0.077490    -2.297167
 C    -2.366206     1.909292    -2.542060
 H    -1.444126     2.423518    -2.860707
 H    -3.177534     2.265906    -3.203125
 H    -2.601424     2.273402    -1.528992
Ir    -0.580470    -0.186689    -1.366412
 C    -1.805600     1.225731     1.847905
 C    -3.809444     0.060473     0.135055
 C    -1.908572    -1.630586     1.522247
 C     1.477522     0.199434     1.525891
 C     2.405528    -1.891916    -0.357517
 C     2.682172     0.990850    -0.977785
 P     1.533487    -0.276659    -0.281682
 P    -2.017568    -0.074388     0.525672
 C     0.007807    -1.079751    -2.867778
 O     0.227801    -1.781117    -3.759097
 H    -0.976872     0.846366     2.467121
 H    -2.691345     1.220551     2.494141
 C    -1.513371     2.636321     1.409831
 C    -2.100036     3.706557     2.098692
 H    -2.797302     3.499510     2.915913
 C    -0.629531     2.930420     0.366850
 H    -0.194795     2.110997    -0.214464
 C    -1.803848     5.025514     1.762251
 H    -2.274723     5.843360     2.313044
 C    -0.323297     4.246903     0.031690
 H     0.375972     4.441920    -0.784775
 C    -0.908846     5.301257     0.729203
 H    -0.674010     6.335109     0.465620
 C    -4.468247     1.276041     0.362931
 H    -3.923697     2.123858     0.781395
 C    -4.512412    -1.012508    -0.458615
 C    -3.862609    -2.320265    -0.802303
 H    -3.748320    -2.963767     0.083669
 H    -2.855922    -2.163924    -1.223092
 H    -4.466316    -2.864915    -1.541224
 C    -5.814859     1.438132     0.050657
 H    -6.303732     2.397256     0.235412
 C    -5.868471    -0.827738    -0.753252
 H    -6.418540    -1.654970    -1.209987
 C    -6.522321     0.374342    -0.500363
 H    -7.580782     0.482778    -0.748766
 C    -1.030116    -2.603052     1.026225
 H    -0.484407    -2.369878     0.104251
 C    -2.683807    -1.919801     2.669818
 C    -3.690263    -0.983873     3.278182
 H    -4.247878    -0.420199     2.518751
 H    -3.206741    -0.258945     3.952538
 H    -4.415771    -1.547120     3.880962
 C    -0.879079    -3.839075     1.646043
 H    -0.188118    -4.573756     1.226856
 C    -2.512924    -3.171004     3.278428
 H    -3.111252    -3.403885     4.163627
 C    -1.623853    -4.121937     2.786491
 H    -1.527460    -5.087935     3.288386
 H     0.903856    -0.593174     2.029569
 H     0.823867     1.080507     1.483249
 C     2.717803     0.567590     2.276044
 C     3.202139     1.880742     2.199658
 H     2.663522     2.614053     1.593790
 C     3.407771    -0.352592     3.074917
 H     3.039052    -1.376583     3.163458
 C     4.357357     2.256018     2.879833
 H     4.719688     3.284037     2.804002
 C     4.563426     0.021051     3.756750
 H     5.088953    -0.712210     4.373251
 C     5.047054     1.325053     3.656396
 H     5.953489     1.617990     4.191471
 C     2.293847    -2.757498     0.740254
 H     1.760303    -2.434475     1.633715
 C     3.067785    -2.340651    -1.523393
 C     3.277793    -1.497360    -2.748655
 H     4.242544    -0.967352    -2.696333
 H     2.507387    -0.732027    -2.884220
 H     3.287604    -2.127974    -3.648142
 C     2.831836    -4.039729     0.717785
 H     2.729429    -4.687678     1.591561
 C     3.597174    -3.637397    -1.523033
 H     4.107337    -3.988292    -2.424368
 C     3.491614    -4.483607    -0.424390
 H     3.918525    -5.488436    -0.464312
 C     2.056506     1.958445    -1.781644
 H     0.989258     1.832855    -1.998115
 C     4.073080     1.079053    -0.747879
 C     4.891418     0.079861     0.018729
 H     5.623810    -0.400276    -0.650484
 H     4.295820    -0.712563     0.476518
 H     5.455480     0.580938     0.819459
 C     2.760288     3.024859    -2.327422
 H     2.245261     3.757664    -2.952939
 C     4.761784     2.165440    -1.308945
 H     5.838188     2.242424    -1.130246
 C     4.126940     3.132509    -2.078645
 H     4.702659     3.962593    -2.495615
