  80
scf done:    -2839.725990
 C    -0.812308    -3.065956    -1.335070
 H    -0.406616    -4.089206    -1.315670
 H    -1.745690    -3.127364    -0.747676
 C    -1.133092    -2.662914    -2.772062
 H    -0.231537    -2.665970    -3.405528
 H    -1.856797    -3.351788    -3.247510
 H    -1.564819    -1.649560    -2.825993
Ir     0.598555    -1.648437    -0.552595
 C    -1.970747    -1.399892     1.746268
 O    -0.841316     0.935085     0.905669
 O    -2.503653    -0.255386    -0.668029
 C     2.410178     0.458397     1.720301
 O     3.582040    -0.397972    -0.587251
 O     1.846713     1.510582    -0.605322
 P     2.077768    -0.024838    -0.000819
 P    -1.209484    -0.577385     0.311270
 C     1.935084    -2.967266    -0.629791
 O     2.718253    -3.801435    -0.534310
 H    -2.773950    -0.755376     2.139971
 H    -2.457041    -2.311271     1.359935
 C    -0.946802    -1.746281     2.821135
 H    -0.419748    -0.828880     3.135437
 H    -0.174885    -2.392832     2.371820
 C    -1.575282    -2.421403     4.028693
 H    -2.330057    -1.775358     4.505395
 H    -2.076836    -3.359460     3.743564
 H    -0.816413    -2.665651     4.787029
 C    -1.768091     1.866986     1.290001
 C    -2.137195     1.975872     2.630723
 H    -1.689518     1.307146     3.368235
 C    -2.316175     2.722251     0.332522
 H    -2.013015     2.615116    -0.709041
 C    -3.067864     2.938055     3.018318
 H    -3.374880     3.047357     4.059842
 C    -3.242713     3.686459     0.716200
 H    -3.689133     4.365374    -0.012397
 C    -3.610473     3.780284     2.054624
 F    -4.499222     4.700221     2.422631
 C    -3.818467    -0.607568    -0.468923
 C    -4.653804     0.155790     0.347868
 H    -4.260913     1.036100     0.856387
 C    -4.320720    -1.722035    -1.141604
 H    -3.655017    -2.297346    -1.785867
 C    -5.990433    -0.203946     0.501628
 H    -6.662771     0.377765     1.134536
 C    -5.656678    -2.082419    -0.992187
 H    -6.071971    -2.949055    -1.509358
 C    -6.476119    -1.319981    -0.168155
 F    -7.753747    -1.664581    -0.019808
 H     3.144472     1.279942     1.737951
 H     1.449427     0.871189     2.070070
 C     2.852647    -0.723359     2.574649
 H     3.844089    -1.067121     2.236771
 H     2.164245    -1.568110     2.402274
 C     2.900925    -0.385214     4.055561
 H     3.597443     0.444379     4.255222
 H     1.908619    -0.080070     4.425721
 H     3.229324    -1.248747     4.653157
 C     4.765459     0.205610    -0.257487
 C     5.812448    -0.622277     0.152413
 H     5.637032    -1.698396     0.208455
 C     4.957196     1.585288    -0.359605
 H     4.135402     2.218693    -0.694658
 C     7.051849    -0.075502     0.469004
 H     7.886109    -0.702481     0.788522
 C     6.195725     2.135058    -0.035125
 H     6.373378     3.209670    -0.105721
 C     7.227343     1.300524     0.375750
 F     8.411579     1.829059     0.683280
 C     0.954815     1.883736    -1.569239
 C     0.609714     3.236229    -1.603460
 H     1.052762     3.909468    -0.867845
 C     0.402398     0.999505    -2.499055
 H     0.687629    -0.060329    -2.486092
 C    -0.294815     3.705335    -2.551461
 H    -0.576134     4.759069    -2.594595
 C    -0.521689     1.461872    -3.433126
 H    -0.975192     0.781528    -4.155886
 C    -0.860678     2.808477    -3.450950
 F    -1.739293     3.253002    -4.350507
