  74
scf done:    -1916.117401
 C     1.127188    -3.204456    -0.147964
 H     0.533635    -4.132446    -0.164391
 H     1.715252    -3.234301    -1.080511
 C     2.055890    -3.253959     1.062202
 H     1.491666    -3.242293     2.009093
 H     2.683793    -4.164851     1.074468
 H     2.748883    -2.395493     1.103434
Ir    -0.155808    -1.498412    -0.026332
 C     2.587147     0.675830     0.850417
 C     2.959236    -0.951142    -1.625658
 C     1.194856     1.312286    -1.632085
 C    -2.454463     1.140756    -0.834785
 C    -3.077947    -0.409851     1.538962
 C    -1.009124     1.606838     1.613599
 P    -1.627359     0.209053     0.569828
 P     1.685695    -0.118313    -0.578699
 C    -1.595944    -2.606429    -0.352187
 O    -2.494940    -3.241345    -0.710175
 H     1.816596     1.305452     1.318873
 H     2.772157    -0.145497     1.556717
 C     3.823193     1.482742     0.591662
 C     3.700654     2.809796     0.161031
 H     2.701831     3.242685     0.059689
 C     5.112768     0.938290     0.772139
 C     5.313754    -0.464495     1.268856
 H     4.893415    -1.211948     0.578748
 H     4.828163    -0.626690     2.244494
 H     6.382380    -0.688403     1.387983
 C     4.816621     3.587461    -0.133754
 H     4.691331     4.618133    -0.473585
 C     6.224326     1.734924     0.476951
 H     7.223891     1.313331     0.614072
 C     6.088800     3.042740     0.017339
 H     6.976686     3.637611    -0.208830
 H     2.364858    -1.558167    -2.326882
 C     3.964944    -0.095841    -2.382586
 H     4.571503     0.535015    -1.720102
 H     3.472315     0.564186    -3.111687
 H     3.459867    -1.684183    -0.975007
 H     4.652134    -0.743481    -2.949025
 H     2.084059     1.921204    -1.858660
 C     0.485347     0.867949    -2.902727
 H    -0.325060     0.161515    -2.665939
 H     1.174859     0.356098    -3.590916
 H     0.530938     1.937692    -1.014025
 H     0.059964     1.728843    -3.440710
 H    -1.741186     1.929814    -1.119261
 H    -2.478954     0.429357    -1.669866
 C    -3.808356     1.715303    -0.556011
 C    -3.926079     2.951590     0.091992
 H    -3.018741     3.514167     0.328295
 C    -4.981231     1.013426    -0.911435
 C    -4.927442    -0.276191    -1.681882
 H    -4.333794    -1.057398    -1.182639
 H    -4.472813    -0.128044    -2.675344
 H    -5.937175    -0.679195    -1.838603
 C    -5.167667     3.484582     0.426986
 H    -5.230112     4.451048     0.932674
 C    -6.220579     1.562880    -0.565557
 H    -7.129783     1.019641    -0.837676
 C    -6.323860     2.779432     0.104656
 H    -7.307086     3.180397     0.361569
 H    -3.716011    -0.925267     0.804559
 C    -2.742333    -1.369751     2.671196
 H    -2.216209    -0.874759     3.498687
 H    -2.099141    -2.188955     2.315903
 H    -3.658674     0.456671     1.894635
 H    -3.663650    -1.809789     3.082442
 H    -1.846185     2.295473     1.811487
 C    -0.346148     1.174410     2.914338
 H     0.324445     0.314754     2.758579
 H    -1.090646     0.876590     3.665120
 H    -0.293153     2.158476     0.980805
 H     0.244159     1.995651     3.349143
