  80
scf done:    -1994.683931
 C     0.353341     1.675116    -2.584112
 H    -0.200551     2.620475    -2.715009
 H     1.384714     1.996518    -2.353494
 C     0.364615     0.909498    -3.905010
 H    -0.654014     0.642722    -4.228722
 H     0.825376     1.492462    -4.724911
 H     0.925164    -0.037868    -3.830805
Ir    -0.547555     0.464012    -1.052930
 C     2.888289    -0.290987    -1.272695
 C     2.188186     2.091783     0.284222
 C     1.923360    -0.536827     1.467829
 C    -1.960188    -0.822690     2.044767
 C    -3.225055    -1.650396    -0.374692
 C    -0.658617    -2.774259     0.329150
 P    -1.563248    -1.161722     0.255239
 P     1.606192     0.390628    -0.105665
 C    -2.181355     1.113222    -1.641412
 O    -3.178777     1.613733    -1.936010
 H     2.854840     0.367477    -2.153956
 H     2.487880    -1.265099    -1.592501
 C     4.272621    -0.431296    -0.725601
 C     4.703949    -1.649014    -0.183151
 H     4.041432    -2.518164    -0.225073
 C     5.152012     0.659463    -0.690646
 H     4.844095     1.610681    -1.132268
 C     5.958765    -1.765451     0.410473
 H     6.273350    -2.723580     0.831290
 C     6.407435     0.545958    -0.098249
 H     7.076922     1.409333    -0.078288
 C     6.812307    -0.664478     0.464205
 H     7.795911    -0.752551     0.931125
 H     3.177390     2.039200     0.765242
 H     2.322784     2.604900    -0.680882
 C     1.189926     2.862787     1.139743
 H     0.993719     2.313380     2.077452
 H     0.228947     2.886610     0.598725
 C     1.657685     4.272515     1.461612
 H     2.605926     4.265348     2.023277
 H     1.822631     4.854419     0.540870
 H     0.914669     4.812137     2.068126
 H     0.967432    -0.546979     2.014174
 H     2.108185    -1.582065     1.166700
 C     3.037190    -0.060401     2.394897
 H     2.777621     0.932241     2.797734
 H     3.974777     0.070093     1.833996
 C     3.269088    -1.030363     3.542829
 H     2.351572    -1.184819     4.133609
 H     3.592963    -2.014440     3.167544
 H     4.049413    -0.663142     4.226273
 H    -1.010745    -0.560055     2.537575
 H    -2.339997    -1.739427     2.521317
 C    -2.957172     0.290990     2.174594
 C    -4.270434     0.033439     2.582816
 H    -4.559392    -0.987396     2.849164
 C    -2.606855     1.604083     1.833358
 H    -1.593463     1.807433     1.478289
 C    -5.211531     1.059652     2.652454
 H    -6.232141     0.838867     2.974558
 C    -3.546339     2.629092     1.898824
 H    -3.257034     3.644807     1.618634
 C    -4.852263     2.361414     2.308918
 H    -5.589690     3.166114     2.357130
 H    -3.695191    -2.367974     0.319609
 H    -3.835410    -0.732906    -0.333869
 C    -3.192285    -2.199616    -1.795438
 H    -2.683353    -3.179460    -1.803547
 H    -2.570839    -1.534759    -2.419950
 C    -4.579111    -2.335060    -2.403548
 H    -5.222464    -2.995684    -1.799967
 H    -5.075399    -1.353712    -2.465571
 H    -4.533308    -2.751479    -3.421311
 H    -0.352221    -2.977977    -0.711259
 H     0.274419    -2.577220     0.879955
 C    -1.373583    -3.981393     0.921303
 H    -2.285228    -4.196373     0.340042
 H    -1.714689    -3.753302     1.945216
 C    -0.489755    -5.219874     0.950114
 H    -0.157745    -5.495047    -0.063699
 H     0.413615    -5.051592     1.558325
 H    -1.020428    -6.085988     1.373859
