 100
scf done:    -2156.652110
 C     1.293278     2.797012    -0.667831
 H     2.162858     3.038310    -0.031033
 H     1.717050     2.421250    -1.618303
 C     0.527579     4.079986    -0.971848
 H     0.176085     4.577346    -0.053731
 H     1.146544     4.813717    -1.521491
 H    -0.364680     3.886032    -1.590053
Ir     0.094710     1.216614     0.116672
 C     1.741714    -1.144750    -2.071178
 C     3.512173     0.504649    -0.500831
 C     2.135858    -1.687873     0.789547
 C    -1.927118    -1.162958     2.011644
 C    -3.281156     0.728807     0.322082
 C    -1.837283    -1.659828    -0.842349
 P    -1.705671    -0.274218     0.402489
 P     1.829402    -0.300374    -0.428159
 C    -0.726540     2.433729     1.237004
 O    -1.127786     3.121709     2.078897
 H     2.580835    -1.850023    -2.192931
 H     0.822102    -1.749654    -2.065230
 C     1.690038    -0.148418    -3.224425
 H     2.600799     0.473846    -3.220854
 H     0.855906     0.552893    -3.050478
 C     1.541889    -0.816391    -4.582273
 H     2.380683    -1.501570    -4.785338
 H     0.613072    -1.404779    -4.639965
 H     1.515600    -0.072847    -5.393156
 H     3.343777     1.375604    -1.155889
 C     4.634606    -0.329705    -1.119052
 H     4.352270    -0.698028    -2.116982
 H     4.826977    -1.223730    -0.497995
 C     5.920184     0.488855    -1.233995
 H     6.727077    -0.136281    -1.650364
 H     5.754954     1.305702    -1.959508
 C     6.343048     1.086906     0.102462
 H     7.242031     1.711476    -0.025556
 H     6.628233     0.270132     0.790693
 C     5.212278     1.893281     0.730521
 H     4.995213     2.778162     0.105791
 H     5.514434     2.276478     1.718606
 C     3.946900     1.053052     0.860399
 H     4.155790     0.211223     1.543984
 H     3.128183     1.636014     1.309651
 H     3.223797    -1.875932     0.724160
 C     1.434609    -3.008414     0.467662
 H     1.682923    -3.350625    -0.548346
 H     0.342748    -2.857649     0.491622
 C     1.799010    -4.090793     1.480118
 H     1.271882    -5.026836     1.232962
 H     2.878788    -4.311827     1.399048
 C     1.480050    -3.656447     2.905259
 H     1.783350    -4.436018     3.622698
 H     0.385430    -3.547254     3.013639
 C     2.151385    -2.329801     3.238174
 H     3.247173    -2.473821     3.261645
 H     1.863312    -1.994457     4.247891
 C     1.806769    -1.249272     2.218961
 H     0.734748    -1.007000     2.263775
 H     2.320346    -0.311393     2.468426
 H    -2.915647    -1.648936     2.049150
 H    -1.183482    -1.977497     2.014716
 C    -1.721602    -0.272300     3.230502
 H    -2.503306     0.504860     3.260689
 H    -0.771251     0.275317     3.119361
 C    -1.727232    -1.054934     4.533984
 H    -2.674988    -1.599016     4.675837
 H    -0.914367    -1.799254     4.553048
 H    -1.590202    -0.391228     5.400976
 H    -3.186804     1.311862     1.258796
 C    -4.614315    -0.016181     0.388058
 H    -4.618826    -0.762682     1.197781
 H    -4.772085    -0.570076    -0.553666
 C    -5.768760     0.965429     0.584083
 H    -6.727044     0.421078     0.611108
 H    -5.659142     1.451846     1.570167
 C    -5.792393     2.033283    -0.504088
 H    -6.601389     2.756905    -0.312420
 H    -6.027977     1.554493    -1.472300
 C    -4.448934     2.746065    -0.616651
 H    -4.260506     3.328942     0.302873
 H    -4.467357     3.472190    -1.445448
 C    -3.307564     1.754999    -0.815279
 H    -3.442925     1.239137    -1.780183
 H    -2.336860     2.272851    -0.871664
 H    -0.812679    -2.069312    -0.822942
 C    -2.068082    -1.135912    -2.260594
 H    -1.366828    -0.312679    -2.476728
 H    -3.081509    -0.706938    -2.330361
 C    -1.939361    -2.251727    -3.292513
 H    -2.133005    -1.856182    -4.302761
 H    -0.899301    -2.624551    -3.300039
 C    -2.877736    -3.410293    -2.978000
 H    -2.751278    -4.220663    -3.714030
 H    -3.923803    -3.065995    -3.071257
 C    -2.646528    -3.932155    -1.565128
 H    -1.632318    -4.367595    -1.501062
 H    -3.348884    -4.749632    -1.334592
 C    -2.778123    -2.823765    -0.522785
 H    -3.821571    -2.471330    -0.497868
 H    -2.563129    -3.233277     0.475741
