 102
scf done:    -2682.494012
 C    -1.053996     0.331314    -3.577122
 H    -0.761883    -0.225415    -4.481959
 H    -2.090373     0.000995    -3.381143
 C    -1.025656     1.825688    -3.888845
 H    -0.017676     2.147752    -4.193951
 H    -1.717871     2.100973    -4.706605
 H    -1.296687     2.446997    -3.016837
Ir     0.262108    -0.076013    -1.940050
 C    -1.421068     0.428721     1.271509
 C    -3.098622     1.066884    -1.068177
 C    -2.223589    -1.771647    -0.631035
 C     1.946389    -1.945657     0.495953
 C     3.616250     0.024411    -1.061847
 C     1.981518     0.838263     1.179017
 P     1.919843    -0.258116    -0.306974
 P    -1.652938     0.006752    -0.536371
 C     1.400021    -0.831766    -3.178274
 O     2.034828    -1.441514    -3.928030
 H    -1.024544    -0.489716     1.731072
 H    -0.605568     1.161784     1.251626
 C    -2.567809     0.966857     2.076196
 C    -3.402144     0.096728     2.786726
 H    -3.201829    -0.973924     2.757465
 C    -2.798110     2.359164     2.154934
 C    -1.870711     3.355144     1.518750
 H    -1.697650     3.170297     0.448234
 H    -0.874308     3.335837     1.990417
 H    -2.262708     4.376147     1.619176
 C    -4.481223     0.568782     3.527036
 H    -5.118671    -0.137480     4.063726
 C    -3.896246     2.814793     2.894967
 H    -4.082542     3.890878     2.948707
 C    -4.740645     1.936183     3.570050
 H    -5.589530     2.323227     4.138747
 H    -2.850693     1.385255    -2.088489
 H    -3.059276     1.959882    -0.431651
 C    -4.476458     0.477199    -1.039854
 C    -5.344069     0.711272     0.033543
 H    -5.014257     1.333964     0.866457
 C    -4.934971    -0.304585    -2.109644
 H    -4.282849    -0.470059    -2.972388
 C    -6.621645     0.156654     0.050445
 H    -7.278678     0.349752     0.901859
 C    -6.212259    -0.861889    -2.093694
 H    -6.548723    -1.469652    -2.937027
 C    -7.059284    -0.638946    -1.007965
 H    -8.060603    -1.075770    -0.993047
 H    -1.305998    -2.301896    -0.923108
 H    -2.894614    -1.808234    -1.501184
 C    -2.847624    -2.421420     0.564325
 C    -4.236517    -2.492587     0.723599
 H    -4.889531    -2.068227    -0.039838
 C    -2.033660    -2.998734     1.549300
 H    -0.947482    -2.987464     1.420289
 C    -4.792574    -3.095258     1.849438
 H    -5.879429    -3.133891     1.954757
 C    -2.587436    -3.598644     2.678627
 H    -1.934182    -4.039656     3.435346
 C    -3.972630    -3.642158     2.836203
 H    -4.410778    -4.111327     3.720210
 H     1.146753    -1.880287     1.251887
 H     1.573848    -2.620930    -0.285139
 C     3.215637    -2.449017     1.106284
 C     3.568928    -2.066637     2.405991
 H     2.892668    -1.419376     2.970478
 C     4.070812    -3.309302     0.383783
 C     3.713604    -3.807241    -0.988529
 H     3.497238    -2.996022    -1.700512
 H     2.813523    -4.443519    -0.960306
 H     4.529501    -4.409129    -1.410789
 C     4.757113    -2.492311     2.990965
 H     5.012845    -2.174048     4.004054
 C     5.262462    -3.728265     0.987566
 H     5.928940    -4.392574     0.430821
 C     5.613712    -3.323907     2.273762
 H     6.551968    -3.666273     2.716348
 H     3.404284     0.632622    -1.952440
 H     3.960195    -0.954937    -1.425723
 C     4.662909     0.694127    -0.221660
 C     5.569079    -0.039382     0.553470
 H     5.541010    -1.129565     0.529674
 C     4.742951     2.093473    -0.190811
 H     4.055070     2.684903    -0.799524
 C     6.507552     0.606005     1.355831
 H     7.201679     0.010012     1.953451
 C     5.677950     2.740411     0.613161
 H     5.714358     3.832344     0.625737
 C     6.561276     1.998378     1.396032
 H     7.295548     2.503986     2.027874
 H     2.962980     0.695623     1.659925
 H     1.231611     0.448009     1.885635
 C     1.747173     2.310234     0.943669
 C     2.036615     3.208088     1.980993
 H     2.439065     2.824490     2.922663
 C     1.251206     2.825985    -0.259032
 H     1.017039     2.141366    -1.089475
 C     1.833024     4.575812     1.824189
 H     2.067617     5.256338     2.646357
 C     1.050075     4.197227    -0.420052
 H     0.664693     4.573055    -1.371189
 C     1.337793     5.077688     0.619298
 H     1.181375     6.151627     0.493149
