  96
scf done:    -2004.313961
 C     1.112537    -2.930842     0.786180
 H     2.049088    -3.177523     0.251829
 H     1.431811    -2.582203     1.786203
 C     0.290553    -4.201474     0.974277
 H     0.045436    -4.677923     0.011339
 H     0.819096    -4.957429     1.585001
 H    -0.668420    -3.994297     1.477609
Ir     0.074515    -1.329208    -0.174944
 C     1.230824     0.845015     2.484504
 C     3.297785    -0.543490     1.010700
 C     1.932376     1.671925    -0.198264
 C    -1.035501     1.274597    -2.383819
 C    -3.079130    -0.399088    -1.226406
 C    -1.805030     1.579602     0.462961
 P    -1.423956     0.321933    -0.846790
 P     1.610359     0.162348     0.810073
 C    -0.612659    -2.507259    -1.426224
 O    -0.941977    -3.169208    -2.316587
 H     2.133230     1.314234     2.912331
 H     0.496143     1.653566     2.329736
 C     0.656235    -0.199718     3.434330
 H     1.398924    -0.998333     3.599459
 H    -0.197234    -0.695927     2.940033
 C     0.228296     0.387664     4.769404
 H     1.074637     0.862973     5.290958
 H    -0.549442     1.157198     4.635343
 H    -0.181807    -0.386231     5.435529
 H     3.193285    -1.425037     1.662371
 H     3.924933     0.186216     1.547367
 C     3.906434    -0.952914    -0.325096
 H     3.132110    -1.473343    -0.914758
 H     4.178891    -0.051930    -0.905647
 C     5.137691    -1.853168    -0.211714
 H     4.830998    -2.751746     0.356077
 C     5.589122    -2.306037    -1.594923
 H     4.777835    -2.821338    -2.131747
 H     6.445647    -2.995187    -1.533321
 H     5.899965    -1.443344    -2.208207
 C     6.278540    -1.182362     0.545150
 H     7.157858    -1.842210     0.606680
 H     5.993718    -0.917403     1.574699
 H     6.594152    -0.255858     0.035131
 H     0.977244     2.219773    -0.241314
 H     2.109713     1.297374    -1.218420
 C     3.048494     2.600366     0.255534
 H     2.905629     2.865668     1.316864
 H     4.018941     2.076066     0.200668
 C     3.149218     3.896740    -0.555393
 H     2.179489     4.421896    -0.459145
 C     4.230045     4.800815     0.025757
 H     4.046609     5.017017     1.089895
 H     4.281520     5.761557    -0.509280
 H     5.221583     4.324195    -0.051042
 C     3.394701     3.637317    -2.037891
 H     3.501168     4.582694    -2.591736
 H     2.572830     3.074303    -2.505368
 H     4.322473     3.059024    -2.185967
 H     0.002658     1.623287    -2.263098
 H    -0.983466     0.494977    -3.164413
 C    -1.925590     2.425213    -2.834417
 H    -1.910185     3.223521    -2.073909
 H    -2.974082     2.090083    -2.904401
 C    -1.485965     3.001075    -4.172892
 H    -0.448862     3.370663    -4.124453
 H    -1.525359     2.238130    -4.966482
 H    -2.126016     3.841000    -4.483387
 H    -2.929488    -1.015573    -2.129630
 H    -3.788794     0.399179    -1.494538
 C    -3.604133    -1.268353    -0.090459
 H    -2.783620    -1.926507     0.245727
 H    -3.857939    -0.637728     0.781824
 C    -4.818532    -2.125920    -0.449437
 H    -4.530149    -2.750583    -1.315801
 C    -5.161701    -3.059542     0.705265
 H    -4.302415    -3.692084     0.976605
 H    -6.003603    -3.722250     0.451474
 H    -5.449299    -2.484739     1.601860
 C    -6.025725    -1.286453    -0.852845
 H    -6.890696    -1.923182    -1.095531
 H    -5.820087    -0.661349    -1.735028
 H    -6.327755    -0.616015    -0.029818
 H    -0.986470     2.319671     0.434094
 H    -1.678095     1.029189     1.408371
 C    -3.152014     2.290398     0.446243
 H    -3.331050     2.746185    -0.539381
 H    -3.961620     1.553988     0.588489
 C    -3.295166     3.379302     1.514761
 H    -2.484128     4.114499     1.349243
 C    -4.625100     4.105917     1.349989
 H    -4.728061     4.534873     0.340964
 H    -4.729344     4.925753     2.077348
 H    -5.470032     3.414365     1.505105
 C    -3.148215     2.830737     2.930059
 H    -3.285391     3.625852     3.678900
 H    -2.158073     2.383521     3.104642
 H    -3.904866     2.052852     3.128227
