  66
scf done:    -2059.738179
 C    -3.393554    -1.167815    -0.594207
 H    -3.966718    -2.070529    -0.331466
 H    -3.907874    -0.356981    -0.047179
 C    -3.480173    -0.913671    -2.095496
 H    -3.055857    -1.750570    -2.672602
 H    -4.523230    -0.777483    -2.437628
 H    -2.922473    -0.011742    -2.403380
Ir    -1.310831    -1.386996    -0.101809
 C    -2.240955     2.087315    -0.129002
 O    -2.697692     0.520332     2.090741
 O    -0.318466     1.279706     1.646496
 C     1.945489    -0.855154     1.392832
 O     1.762340    -2.882057    -0.254443
 O     1.493520    -0.586470    -1.363893
 P     0.970411    -1.441617    -0.060996
 P    -1.616782     0.650282     0.863391
 C    -1.573628    -3.237379    -0.082652
 O    -1.790558    -4.351821     0.113263
 H    -2.963878     1.653989    -0.840657
 H    -2.803153     2.781074     0.507710
 C    -1.118443     2.792034    -0.843423
 C    -0.221580     2.047691    -1.618141
 H    -0.354362     0.966716    -1.714739
 C    -0.933938     4.185232    -0.720390
 C    -1.898116     5.052626     0.041065
 H    -1.968681     4.776731     1.106618
 H    -2.916944     4.988475    -0.373466
 H    -1.590233     6.106284    -0.000107
 C     0.868857     2.648748    -2.238283
 H     1.562369     2.037818    -2.819154
 C     0.165868     4.773234    -1.356176
 H     0.311681     5.853049    -1.263210
 C     1.068148     4.019601    -2.102727
 H     1.920980     4.506237    -2.582105
 C    -3.827986     1.316960     2.338299
 H    -3.565076     2.365535     2.563671
 H    -4.538134     1.299126     1.495272
 H    -4.330574     0.893098     3.218654
 C    -0.411402     2.371385     2.531459
 H    -0.733420     3.287243     2.009565
 H    -1.103227     2.151484     3.359999
 H     0.593143     2.543467     2.941817
 H     1.218565    -0.273995     1.974786
 H     2.197090    -1.760934     1.961123
 C     3.136130    -0.008592     1.056674
 C     2.922967     1.334075     0.718626
 H     1.901805     1.721851     0.732635
 C     4.440129    -0.539468     1.007420
 C     4.705867    -1.978389     1.345367
 H     4.062710    -2.653991     0.760572
 H     4.499069    -2.185167     2.408800
 H     5.755340    -2.242062     1.154778
 C     3.976495     2.154190     0.326312
 H     3.782093     3.193873     0.052024
 C     5.489102     0.302210     0.620409
 H     6.503649    -0.104420     0.580802
 C     5.268753     1.634626     0.276929
 H     6.107609     2.264444    -0.029364
 C     1.414507    -3.743352    -1.317021
 H     0.411088    -3.517661    -1.714474
 H     2.145435    -3.651713    -2.137332
 H     1.419700    -4.777572    -0.944361
 C     2.784410    -0.669314    -1.936456
 H     3.347847     0.253695    -1.735908
 H     3.354992    -1.522252    -1.540591
 H     2.663365    -0.796690    -3.023569
