  84
scf done:    -5576.225410
 C     1.560172    -4.059091    -1.115888
 H     2.046131    -4.169850    -2.100570
 H     2.393687    -3.916820    -0.406899
 C     0.807141    -5.332772    -0.751338
 H     0.048082    -5.597447    -1.504804
 H     1.488615    -6.197420    -0.658333
 H     0.273661    -5.243446     0.209996
Ir     0.299399    -2.331330    -1.173735
 O     2.328778    -1.331738     1.379676
 O     3.469132    -1.550908    -0.839391
 O     1.865397     0.434632    -0.415458
 O    -1.202904    -0.054260     0.625176
 O    -1.190820     0.689784    -1.824675
 O    -2.747048    -1.174829    -1.090809
 P    -1.188125    -0.673988    -0.893938
 P     2.008424    -1.189860    -0.243204
 C    -0.741578    -3.172305    -2.509890
 O    -1.299785    -3.594936    -3.416868
 C     1.226578    -1.374593     2.213021
 C     0.439603    -2.524744     2.262102
 H     0.722836    -3.399264     1.673503
 C     0.896431    -0.251742     2.965437
 H     1.515363     0.644508     2.905729
 C    -0.707397    -2.537260     3.049905
 H    -1.337653    -3.426742     3.096823
 C    -0.247499    -0.263102     3.756975
 H    -0.533468     0.617774     4.333032
 C    -1.052705    -1.399962     3.778250
Cl    -2.512968    -1.389632     4.712059
 C     4.703478    -1.058100    -0.467599
 C     5.267525    -1.396344     0.759271
 H     4.730529    -2.061852     1.434878
 C     5.376862    -0.230839    -1.362754
 H     4.916368     0.001445    -2.323817
 C     6.494254    -0.845564     1.120026
 H     6.946857    -1.084005     2.083733
 C     6.599212     0.322669    -1.002062
 H     7.124631     1.000716    -1.675866
 C     7.144796     0.025061     0.247179
Cl     8.642936     0.751219     0.720072
 C     2.833267     1.407612    -0.318141
 C     2.979444     2.265022    -1.405716
 H     2.329733     2.131779    -2.272685
 C     3.624341     1.557518     0.820488
 H     3.501508     0.877832     1.663044
 C     3.959577     3.252232    -1.378643
 H     4.097355     3.923697    -2.227496
 C     4.613679     2.534338     0.842533
 H     5.268453     2.640004     1.708533
 C     4.784785     3.370247    -0.260761
Cl     6.043587     4.556609    -0.246408
 C    -1.492717     1.212078     1.064351
 C    -2.639820     1.426797     1.825660
 H    -3.312124     0.595609     2.037571
 C    -0.599528     2.254008     0.817015
 H     0.295256     2.058496     0.228585
 C    -2.907962     2.698449     2.323098
 H    -3.804374     2.879451     2.918033
 C    -0.866284     3.526495     1.313675
 H    -0.177139     4.350779     1.123463
 C    -2.024396     3.745349     2.060019
Cl    -2.362590     5.329194     2.673126
 C    -2.291914     1.282249    -2.394526
 C    -2.783329     2.479470    -1.877592
 H    -2.302210     2.929888    -1.009424
 C    -2.895809     0.691355    -3.504926
 H    -2.499636    -0.246916    -3.896842
 C    -3.891839     3.083368    -2.465067
 H    -4.287826     4.018511    -2.066387
 C    -4.007304     1.288967    -4.089814
 H    -4.494130     0.832025    -4.952606
 C    -4.504468     2.482149    -3.563650
Cl    -5.893809     3.223045    -4.283885
 C    -3.779501    -1.029692    -0.200183
 C    -4.814857    -0.140817    -0.482517
 H    -4.790264     0.441792    -1.403961
 C    -3.795611    -1.791951     0.967138
 H    -2.973753    -2.481631     1.165196
 C    -5.862475     0.003517     0.422317
 H    -6.676419     0.701021     0.219424
 C    -4.838607    -1.645879     1.876058
 H    -4.848314    -2.216765     2.804873
 C    -5.864414    -0.740865     1.601952
Cl    -7.152966    -0.538375     2.741175
