 108
scf done:    -2761.071956
 C     0.832170     0.252658    -3.374173
 H     0.706163     1.129659    -4.031563
 H     1.902796     0.270449    -3.108543
 C     0.540407    -1.015197    -4.172390
 H    -0.493914    -1.026344    -4.550834
 H     1.209609    -1.127208    -5.045808
 H     0.653608    -1.930023    -3.564462
Ir    -0.467702     0.410118    -1.666313
 C     2.478043    -1.473832    -1.019465
 C     2.610290     1.513607    -0.795216
 C     1.446800    -0.141905     1.432519
 C    -1.955219     1.524546     1.450162
 C    -3.782156     0.518568    -0.583074
 C    -2.152780    -1.226489     1.078278
 P    -2.036471     0.307000     0.047306
 P     1.528770     0.028025    -0.433112
 C    -1.688667     1.100781    -2.874887
 O    -2.380824     1.604787    -3.647337
 H     2.022633    -1.717011    -1.988654
 H     2.208513    -2.282551    -0.327621
 C     3.968362    -1.376639    -1.159002
 C     4.826173    -1.807615    -0.140292
 H     4.408381    -2.236201     0.771212
 C     4.536174    -0.860445    -2.332703
 H     3.883330    -0.552687    -3.154772
 C     6.207709    -1.694272    -0.276313
 H     6.855111    -2.032209     0.536398
 C     5.918109    -0.744258    -2.469954
 H     6.338104    -0.335729    -3.392173
 C     6.760548    -1.153410    -1.436483
 H     7.844179    -1.061197    -1.540876
 H     3.216845     1.216684    -1.661243
 H     1.897670     2.267155    -1.156791
 C     3.491918     2.057441     0.285900
 C     4.838190     1.679115     0.346624
 H     5.230286     0.986825    -0.400146
 C     2.986571     2.972348     1.234773
 C     1.580444     3.490930     1.145578
 H     0.839198     2.700909     0.959493
 H     1.472498     4.200821     0.308616
 H     1.285519     4.019451     2.062335
 C     5.678595     2.161827     1.345103
 H     6.724064     1.846458     1.372817
 C     3.842032     3.435675     2.241507
 H     3.450958     4.136445     2.984256
 C     5.175123     3.035101     2.306704
 H     5.819968     3.414035     3.103203
 H     1.474396     0.887293     1.816434
 H     0.434530    -0.520304     1.615089
 C     2.453869    -0.980569     2.164861
 C     3.597038    -0.375990     2.699835
 H     3.731156     0.699591     2.583920
 C     2.252422    -2.365040     2.360570
 C     0.990007    -3.056805     1.932640
 H     0.669004    -2.809644     0.911133
 H     0.150309    -2.783203     2.593821
 H     1.096781    -4.148583     1.986065
 C     4.563351    -1.117130     3.371797
 H     5.449313    -0.616493     3.768708
 C     3.240353    -3.096981     3.031245
 H     3.091705    -4.170867     3.173421
 C     4.392518    -2.490535     3.526268
 H     5.145988    -3.089771     4.042980
 H    -0.942582     1.399565     1.870591
 H    -2.660346     1.215620     2.238077
 C    -2.191309     2.963766     1.079416
 C    -2.947033     3.784171     1.927321
 H    -3.365183     3.364058     2.846884
 C    -1.657509     3.526726    -0.087885
 H    -1.068479     2.892768    -0.763007
 C    -3.165328     5.126394     1.621929
 H    -3.757528     5.746872     2.298984
 C    -1.878686     4.867266    -0.395933
 H    -1.458897     5.282632    -1.315485
 C    -2.632608     5.673145     0.455964
 H    -2.806884     6.723532     0.210979
 H    -3.849389     1.589627    -0.834602
 H    -3.814648    -0.028890    -1.533708
 C    -4.880304     0.100020     0.344288
 C    -5.272036     0.954118     1.383324
 H    -4.822141     1.947857     1.444221
 C    -5.509345    -1.158514     0.215675
 C    -5.210079    -2.078826    -0.933146
 H    -4.145283    -2.344711    -0.995111
 H    -5.485714    -1.613911    -1.893999
 H    -5.778314    -3.014296    -0.841389
 C    -6.227473     0.570933     2.320700
 H    -6.514041     1.257170     3.121197
 C    -6.465304    -1.528041     1.169520
 H    -6.951172    -2.503041     1.073271
 C    -6.818037    -0.685986     2.221722
 H    -7.566932    -1.005607     2.950258
 H    -1.365530    -1.137127     1.847943
 H    -3.099572    -1.146158     1.634938
 C    -2.051343    -2.573454     0.412582
 C    -1.473902    -2.743351    -0.849993
 H    -1.117707    -1.853772    -1.398131
 C    -2.525874    -3.706653     1.109141
 C    -3.160165    -3.575241     2.463200
 H    -4.069616    -2.952354     2.424232
 H    -2.480811    -3.100240     3.189891
 H    -3.443102    -4.558452     2.863306
 C    -1.356043    -4.004951    -1.428900
 H    -0.904572    -4.104202    -2.418986
 C    -2.399041    -4.965402     0.513668
 H    -2.766950    -5.842501     1.053465
 C    -1.819201    -5.123801    -0.743572
 H    -1.734790    -6.119807    -1.184955
