  92
scf done:    -3594.688674
 C    -0.801224     0.691332     3.920022
 H    -0.235129     1.049618     4.793974
 H    -1.481606     1.522230     3.669812
 C    -1.595911    -0.547218     4.325247
 H    -0.932171    -1.358640     4.662747
 H    -2.299883    -0.339453     5.152466
 H    -2.191042    -0.963914     3.493127
Ir     0.491223     0.169984     2.298286
 O    -1.816533    -1.199646     0.325449
 C    -2.847066     1.182860     1.420483
 C    -0.927333     1.136062    -0.765579
 O     2.085699    -0.427692    -0.794710
 C     3.553662    -1.184968     1.372519
 C     1.216061    -2.646708     0.349629
 P     1.813828    -0.938072     0.782370
 P    -1.320997     0.321308     0.828443
 C     1.918705     0.704814     3.359766
 O     2.788610     1.167620     3.957473
 C    -3.023603    -1.584898    -0.188313
 C    -3.849683    -2.378229     0.607508
 H    -3.516924    -2.641792     1.613339
 C    -3.404100    -1.266529    -1.493148
 H    -2.741591    -0.680250    -2.130160
 C    -5.082471    -2.805078     0.125380
 H    -5.743807    -3.412930     0.744753
 C    -4.640858    -1.680378    -1.974494
 H    -4.962363    -1.410411    -2.981086
 C    -5.481054    -2.434832    -1.157699
Cl    -7.044785    -2.902380    -1.738326
 H    -2.453757     2.151999     1.768583
 H    -3.164783     0.641100     2.323090
 C    -3.998537     1.386263     0.477871
 C    -5.179597     0.651833     0.637261
 H    -5.258661    -0.062957     1.458992
 C    -3.934262     2.325972    -0.559836
 H    -3.047061     2.954130    -0.670200
 C    -6.243328     0.802938    -0.247346
 H    -7.144533     0.198950    -0.119105
 C    -4.998845     2.480043    -1.445693
 H    -4.926944     3.216056    -2.250267
 C    -6.151743     1.709910    -1.302081
 H    -6.982868     1.825460    -2.001616
 H    -1.811896     1.044396    -1.414321
 H    -0.134693     0.512090    -1.210592
 C    -0.500889     2.582516    -0.712176
 C    -0.455755     3.302955    -1.913418
 H    -0.719349     2.800839    -2.848353
 C    -0.148623     3.242186     0.470257
 H    -0.117049     2.686948     1.415135
 C    -0.068977     4.639291    -1.934529
 H    -0.019021     5.174896    -2.884972
 C     0.228004     4.584504     0.452473
 H     0.501498     5.076812     1.388879
 C     0.271271     5.288066    -0.748121
 H     0.579490     6.335773    -0.764746
 C     2.433173     0.809890    -1.221660
 C     2.454837     0.991166    -2.609180
 H     2.212360     0.138904    -3.247347
 C     2.749496     1.872425    -0.373513
 H     2.697754     1.746643     0.709270
 C     2.768677     2.233271    -3.145038
 H     2.775918     2.387661    -4.225228
 C     3.067388     3.116994    -0.912323
 H     3.292099     3.957767    -0.255475
 C     3.066206     3.296119    -2.291149
Cl     3.409052     4.861279    -2.955908
 H     3.442111    -1.577003     2.395686
 H     3.971571    -0.170418     1.475208
 C     4.440454    -2.059138     0.545220
 C     4.973376    -1.603897    -0.668129
 H     4.761646    -0.586723    -1.004668
 C     4.740050    -3.362721     0.960547
 H     4.345625    -3.726551     1.913700
 C     5.765911    -2.437838    -1.451260
 H     6.166923    -2.067671    -2.397687
 C     5.537930    -4.197613     0.179452
 H     5.761559    -5.210788     0.521720
 C     6.048392    -3.738784    -1.033692
 H     6.671848    -4.391075    -1.649571
 H     0.189766    -2.693084     0.741086
 H     1.832152    -3.346490     0.934994
 C     1.238054    -2.995843    -1.112452
 C     2.333367    -3.637882    -1.697334
 H     3.187107    -3.923523    -1.081262
 C     0.154134    -2.648585    -1.927521
 H    -0.709087    -2.160836    -1.474843
 C     2.351375    -3.909641    -3.063836
 H     3.220171    -4.409329    -3.499326
 C     0.169268    -2.920095    -3.292805
 H    -0.691469    -2.645991    -3.908417
 C     1.273382    -3.547410    -3.869688
 H     1.288831    -3.762045    -4.941010
