  96
scf done:    -2603.929940
 C    -1.491621    -3.035622    -0.988555
 H    -1.604598    -4.002531    -0.469700
 H    -2.507274    -2.599918    -0.976787
 C    -1.064915    -3.284156    -2.432086
 H    -0.089700    -3.793895    -2.484545
 H    -1.793359    -3.912537    -2.978016
 H    -0.957403    -2.345730    -3.003193
Ir    -0.025502    -1.780757    -0.057213
 C    -2.395831     0.224644    -1.664331
 C    -3.158289    -0.739195     1.044226
 C    -1.420617     1.440886     0.840658
 C     2.000564     1.074040     1.344475
 C     3.441010    -0.970288    -0.009988
 C     1.547404     0.566079    -1.539713
 P     1.743790    -0.288315     0.073167
 P    -1.733863    -0.176951     0.035718
 C     0.861581    -3.340066     0.398458
 O     1.296287    -4.333804     0.796225
 H    -2.277249    -0.724836    -2.205143
 H    -1.662492     0.917945    -2.105904
 C    -3.804812     0.715448    -1.779792
 C    -4.117035     2.076633    -1.876142
 H    -3.314053     2.815483    -1.916373
 C    -4.860244    -0.206587    -1.753007
 H    -4.633715    -1.273289    -1.675016
 C    -5.442574     2.505922    -1.920711
 H    -5.663249     3.573662    -1.993527
 C    -6.184604     0.217854    -1.801986
 H    -6.990082    -0.519895    -1.775647
 C    -6.482160     1.578594    -1.878099
 H    -7.521235     1.914590    -1.913098
 C    -3.147622    -2.006929     1.634324
 H    -2.282186    -2.655674     1.476912
 C    -4.238422     0.120462     1.272284
 H    -4.235229     1.124931     0.841218
 C    -4.225745    -2.408300     2.418888
 H    -4.218336    -3.396579     2.884753
 C    -5.333380    -0.277390     2.044515
 C    -6.497836     0.651166     2.230729
 H    -6.173400     1.621909     2.637082
 H    -6.989026     0.855300     1.265546
 H    -7.248348     0.229302     2.913806
 C    -5.311179    -1.555789     2.612972
 H    -6.156212    -1.883800     3.225066
 C    -1.282867     2.648578     0.155119
 H    -1.414966     2.691371    -0.924963
 C    -1.232635     1.423380     2.230225
 H    -1.341713     0.476768     2.768140
 C    -0.950508     3.811439     0.851815
 H    -0.848041     4.755657     0.310763
 C    -0.891790     2.575370     2.939861
 C    -0.635384     2.521343     4.417203
 H    -0.985037     3.433729     4.922189
 H    -1.132674     1.657780     4.880554
 H     0.444929     2.429971     4.620336
 C    -0.751825     3.775527     2.227899
 H    -0.487244     4.691467     2.763188
 H     1.720498     0.596736     2.294897
 H     1.241315     1.844896     1.153993
 C     3.387222     1.632882     1.417385
 C     3.800944     2.701954     0.612955
 H     3.082372     3.197235    -0.042235
 C     4.337652     1.031866     2.254024
 H     4.035841     0.196856     2.890841
 C     5.124742     3.137673     0.624228
 H     5.423628     3.972966    -0.014062
 C     5.661666     1.459047     2.263052
 H     6.385478     0.962307     2.913398
 C     6.063823     2.512225     1.442305
 H     7.103366     2.848665     1.446083
 C     3.798976    -2.002603     0.863593
 H     3.045132    -2.470171     1.499631
 C     4.419574    -0.382195    -0.815158
 H     4.144621     0.433629    -1.488461
 C     5.122561    -2.428738     0.924048
 H     5.400886    -3.239627     1.601447
 C     5.755028    -0.793125    -0.756052
 C     6.793404    -0.101897    -1.590110
 H     6.469652    -0.007261    -2.637783
 H     6.971950     0.917674    -1.210693
 H     7.751380    -0.640439    -1.574515
 C     6.091749    -1.826810     0.123749
 H     7.130142    -2.164997     0.181356
 C     1.538683    -0.249587    -2.682399
 H     1.770214    -1.313617    -2.588831
 C     1.236435     1.920723    -1.677145
 H     1.226433     2.568345    -0.801056
 C     1.215999     0.292749    -3.922435
 H     1.209047    -0.348203    -4.807271
 C     0.896203     2.476935    -2.916251
 C     0.525187     3.928100    -3.028624
 H    -0.540454     4.048043    -3.286115
 H     0.703584     4.462705    -2.084787
 H     1.102904     4.432691    -3.818335
 C     0.888702     1.643080    -4.039079
 H     0.625054     2.056202    -5.016815
