 116
scf done:    -3362.345845
 C     1.935951    -2.635479    -0.947396
 H     2.023786    -2.873968    -2.021318
 H     2.900583    -2.181841    -0.666260
 C     1.764832    -3.937762    -0.175260
 H     0.901745    -4.518787    -0.540572
 H     2.653962    -4.591170    -0.259914
 H     1.599930    -3.759432     0.895729
Ir     0.329097    -1.227254    -0.708003
 C     2.276155     0.141839     1.763660
 C     3.603696     0.424964    -0.911077
 C     1.585419     2.248137    -0.161344
 C    -1.803726     1.823665    -0.405928
 C    -3.173375    -0.541007    -0.859548
 C    -1.720229    -0.350960     1.709740
 P    -1.570354    -0.009538    -0.101894
 P     1.967961     0.433200    -0.042160
 C    -0.737179    -2.586481    -1.304141
 O    -1.392609    -3.432949    -1.750842
 H     1.327968     0.463463     2.215700
 H     3.053840     0.823717     2.109806
 C     2.587630    -1.262748     2.183010
 C     3.842686    -1.833041     1.938335
 H     4.581264    -1.278738     1.353414
 C     1.654711    -1.993596     2.926343
 H     0.667999    -1.566143     3.112932
 C     4.157877    -3.097293     2.431340
 H     5.139836    -3.529785     2.223706
 C     1.974581    -3.250553     3.434829
 H     1.231060    -3.799408     4.018493
 C     3.228898    -3.807362     3.191252
 H     3.479571    -4.796316     3.582493
 C     4.754460     1.004184    -0.333516
 O     4.584518     1.644622     0.841213
 C     5.687523     2.195956     1.500049
 H     5.307281     2.625742     2.435434
 H     6.446143     1.432342     1.743676
 H     6.161985     2.996195     0.905976
 C     3.740431    -0.131052    -2.205162
 O     2.629855    -0.544595    -2.817148
 C     2.705043    -1.295450    -3.991834
 H     1.683415    -1.642244    -4.194498
 H     3.356157    -2.177796    -3.874418
 H     3.063436    -0.689868    -4.843994
 C     4.997503    -0.217185    -2.824146
 H     5.095498    -0.673082    -3.808080
 C     6.008220     0.924010    -0.950741
 H     6.891231     1.354552    -0.481511
 C     6.115383     0.298101    -2.186581
 H     7.092032     0.229428    -2.671759
 C     1.702150     3.242125     0.829337
 O     2.156079     2.884751     2.049730
 C     2.588861     3.868175     2.941998
 H     3.043924     3.339161     3.790440
 H     3.340571     4.533120     2.482379
 H     1.759848     4.488581     3.325653
 C     1.141798     2.661601    -1.436355
 O     1.102975     1.688320    -2.352510
 C     0.613274     1.927792    -3.637107
 H     0.701650     0.977218    -4.175034
 H     1.204172     2.698078    -4.162675
 H    -0.448022     2.229856    -3.618752
 C     0.772262     3.981911    -1.710465
 H     0.409934     4.266755    -2.697190
 C     1.337801     4.570966     0.561719
 H     1.419105     5.330666     1.337947
 C     0.869036     4.925133    -0.696880
 H     0.579097     5.960269    -0.891319
 H    -1.502917     1.900900    -1.460326
 H    -1.065086     2.362295     0.194507
 C    -3.192269     2.354857    -0.233746
 C    -3.698226     2.721211     1.019799
 H    -3.052370     2.637805     1.893194
 C    -4.044594     2.454656    -1.341760
 H    -3.668840     2.165792    -2.326860
 C    -5.010392     3.165573     1.160960
 H    -5.382426     3.446492     2.149946
 C    -5.359579     2.891562    -1.204561
 H    -6.005513     2.948941    -2.084126
 C    -5.850417     3.248589     0.050423
 H    -6.881448     3.593401     0.162171
 C    -4.391676    -0.674635    -0.163498
 O    -4.379181    -0.356777     1.139804
 C    -5.555952    -0.396488     1.888736
 H    -5.282358    -0.082548     2.904375
 H    -6.313861     0.299239     1.489102
 H    -5.982069    -1.414391     1.933381
 C    -3.195893    -0.736239    -2.250099
 O    -2.065702    -0.419051    -2.918356
 C    -1.800543    -1.036894    -4.147026
 H    -0.735254    -0.869451    -4.351873
 H    -2.398748    -0.601389    -4.967317
 H    -1.982421    -2.122449    -4.094863
 C    -4.347315    -1.179635    -2.912229
 H    -4.337126    -1.347481    -3.988791
 C    -5.551204    -1.107275    -0.817287
 H    -6.484535    -1.224862    -0.268528
 C    -5.512151    -1.369921    -2.182182
 H    -6.418221    -1.709124    -2.690141
 C    -2.062878    -1.667339     2.092706
 O    -2.401911    -2.493421     1.094247
 C    -2.528132    -3.868445     1.323067
 H    -2.680689    -4.325832     0.338222
 H    -1.610320    -4.283471     1.772995
 H    -3.391982    -4.097345     1.971767
 C    -1.335696     0.533754     2.728660
 O    -0.929329     1.771992     2.351088
 C    -0.698123     2.746791     3.326124
 H    -0.480717     3.675991     2.783855
 H     0.163956     2.491684     3.964673
 H    -1.586011     2.902121     3.964011
 C    -1.343318     0.147299     4.077430
 H    -1.045567     0.846901     4.856649
 C    -2.062594    -2.065852     3.432859
 H    -2.336139    -3.084139     3.706062
 C    -1.711121    -1.147944     4.416653
 H    -1.708107    -1.452475     5.465684
