  88
scf done:    -2147.985204
 C     2.426371     1.900087     1.524914
 H     2.342473     2.458188     2.471999
 H     3.131324     1.081055     1.749805
 C     3.013132     2.812885     0.452852
 H     2.357289     3.674180     0.247191
 H     3.999927     3.218210     0.745414
 H     3.156539     2.291301    -0.508179
Ir     0.499906     1.201281     0.847073
 C     3.017444    -0.811199    -0.602442
 O     2.277249    -1.447607     1.836016
 O     0.629650    -2.030072    -0.041248
 C    -2.405680    -0.786775     0.433284
 O    -2.577141     1.630257    -0.547589
 O    -0.920516     0.076595    -1.782871
 P    -1.371472     0.545342    -0.271857
 P     1.576929    -0.795305     0.506362
 C    -0.272088     2.574169     1.851183
 O    -0.740011     3.306905     2.609547
 H     3.472462    -1.815760    -0.598748
 H     3.752423    -0.123244    -0.156766
 C     2.595915    -0.367363    -1.999272
 H     1.726722    -0.963782    -2.320635
 H     2.219507     0.670154    -1.949351
 C     3.691652    -0.460688    -3.060946
 H     4.050900    -1.508171    -3.078459
 C     3.114204    -0.142608    -4.435347
 H     2.283817    -0.820633    -4.688384
 H     3.875966    -0.232457    -5.225177
 H     2.722048     0.887588    -4.464487
 C     4.882238     0.437352    -2.744966
 H     5.657771     0.357422    -3.522350
 H     5.351747     0.181015    -1.783382
 H     4.569895     1.493668    -2.691055
 C     1.521035    -1.625872     3.046999
 H     0.447513    -1.666692     2.783381
 C     1.748387    -0.460614     3.985474
 H     1.393859     0.470417     3.522138
 H     2.819621    -0.358345     4.216232
 H     1.199178    -0.618114     4.925971
 C     1.948558    -2.952970     3.639248
 H     1.753249    -3.784297     2.946800
 H     3.026630    -2.936284     3.860728
 H     1.405839    -3.148627     4.575858
 C     1.066502    -3.394212    -0.060190
 H     1.974488    -3.478172     0.561896
 C     1.385501    -3.829331    -1.477743
 H     2.189079    -3.223574    -1.917985
 H     0.495336    -3.736399    -2.116304
 H     1.708232    -4.881301    -1.487641
 C    -0.034343    -4.230791     0.561280
 H    -0.267565    -3.878809     1.576356
 H    -0.951990    -4.166911    -0.043388
 H     0.264946    -5.287874     0.620569
 H    -2.403594    -0.545392     1.511002
 H    -1.784006    -1.689691     0.330734
 C    -3.838056    -0.968084    -0.048891
 H    -4.337881     0.012472    -0.032914
 H    -3.856586    -1.301375    -1.100433
 C    -4.650929    -1.962482     0.784740
 H    -4.635534    -1.605337     1.832010
 C    -6.101706    -1.980151     0.317711
 H    -6.549589    -0.975234     0.360092
 H    -6.717096    -2.651166     0.936940
 H    -6.172766    -2.332293    -0.725225
 C    -4.053661    -3.365174     0.760791
 H    -4.664980    -4.068785     1.346864
 H    -3.035346    -3.388501     1.176018
 H    -4.003727    -3.750811    -0.272241
 C    -2.337099     3.028904    -0.724660
 H    -1.290308     3.238067    -0.436472
 C    -3.272756     3.775464     0.202431
 H    -3.086929     3.494599     1.248242
 H    -4.320299     3.541132    -0.043269
 H    -3.126930     4.861780     0.107560
 C    -2.527864     3.391737    -2.183286
 H    -1.802871     2.856831    -2.811396
 H    -3.543491     3.128339    -2.517542
 H    -2.380975     4.471482    -2.334885
 C    -1.790198    -0.376059    -2.819020
 H    -2.811482    -0.007951    -2.614937
 C    -1.782120    -1.892999    -2.870859
 H    -2.062036    -2.333776    -1.904960
 H    -0.774281    -2.250644    -3.127365
 H    -2.485121    -2.258285    -3.634792
 C    -1.296748     0.225639    -4.120309
 H    -1.329000     1.322648    -4.087419
 H    -0.254855    -0.078869    -4.303253
 H    -1.914191    -0.114019    -4.965298
