 104
scf done:    -2757.094525
 C     1.934742    -2.271246     2.051878
 H     2.217374    -3.282086     1.706997
 H     2.872403    -1.693159     1.981026
 C     1.508938    -2.344793     3.515126
 H     0.652313    -3.022370     3.660075
 H     2.325060    -2.707785     4.167747
 H     1.198907    -1.362641     3.907714
Ir     0.385722    -1.490823     0.772508
 C     2.591244     1.117384     1.667036
 C     3.515196    -0.612438    -0.460220
 C     1.695870     1.435826    -1.060191
 C    -1.446594     0.205182    -1.961475
 C    -2.991655    -1.421747    -0.229686
 C    -1.852226     1.009841     0.791278
 P    -1.436416    -0.450724    -0.229444
 P     1.997510     0.148717     0.210545
 C    -0.491204    -3.081499     1.125900
 O    -0.953210    -4.122054     1.313478
 H     3.162781     1.991819     1.313401
 H     3.304770     0.446625     2.168328
 C     1.483952     1.521773     2.632830
 H     0.718549     2.125346     2.117102
 H     0.951302     0.610861     2.956385
 C     1.980799     2.294634     3.858230
 H     2.489882     3.207508     3.491996
 C     0.806518     2.730865     4.726746
 H     0.077677     3.335095     4.166665
 H     1.147854     3.323759     5.589686
 H     0.267792     1.852508     5.118877
 C     2.987366     1.495649     4.680243
 H     3.299359     2.057569     5.574169
 H     3.897719     1.254577     4.111474
 H     2.545529     0.544065     5.019612
 C     4.684537     0.138612    -0.660751
 H     4.706228     1.200856    -0.403116
 C     3.512446    -1.957951    -0.827379
 H     2.597186    -2.537650    -0.667477
 C     5.819074    -0.446934    -1.196391
 H     6.736440     0.123397    -1.353547
 C     4.645957    -2.558472    -1.374994
 H     4.609502    -3.613328    -1.647521
 C     5.809688    -1.803961    -1.557797
 O     6.956526    -2.286904    -2.070844
 C     7.014489    -3.635360    -2.444834
 H     6.286907    -3.872249    -3.241027
 H     8.027991    -3.812655    -2.826256
 H     6.832640    -4.306950    -1.587507
 C     1.874353     1.119016    -2.417873
 H     2.221952     0.121358    -2.697334
 C     1.258523     2.720944    -0.738282
 H     1.101279     3.004772     0.303382
 C     1.620841     2.050521    -3.409948
 H     1.755960     1.808959    -4.465754
 C     0.996217     3.670534    -1.728194
 H     0.651680     4.662191    -1.434013
 C     1.174869     3.337869    -3.074289
 O     0.933356     4.171515    -4.103747
 C     0.446854     5.455996    -3.831665
 H     1.158271     6.045078    -3.226473
 H     0.309615     5.952315    -4.800506
 H    -0.524930     5.421671    -3.308031
 H    -0.945610    -0.566232    -2.568602
 H    -0.763820     1.067516    -1.970788
 C    -2.815166     0.539744    -2.542039
 H    -3.379434    -0.397610    -2.668776
 H    -3.405031     1.136361    -1.822988
 C    -2.770136     1.285338    -3.879488
 H    -2.035348     0.769321    -4.525949
 C    -4.128291     1.227415    -4.569077
 H    -4.441898     0.188504    -4.754982
 H    -4.113382     1.755403    -5.535481
 H    -4.903340     1.700518    -3.942938
 C    -2.312637     2.729389    -3.709085
 H    -2.213607     3.238538    -4.680282
 H    -1.336012     2.790693    -3.209497
 H    -3.041343     3.295554    -3.104098
 C    -4.212769    -0.933095     0.255683
 H    -4.260652     0.061210     0.705381
 C    -2.972269    -2.694018    -0.806251
 H    -2.030197    -3.100369    -1.184722
 C    -5.368249    -1.696338     0.175204
 H    -6.320892    -1.326382     0.559142
 C    -4.127166    -3.467024    -0.905528
 H    -4.067154    -4.457549    -1.356655
 C    -5.337252    -2.970588    -0.406935
 O    -6.506070    -3.640506    -0.441032
 C    -6.530371    -4.926284    -0.993505
 H    -5.867681    -5.620818    -0.447614
 H    -7.564356    -5.284864    -0.911766
 H    -6.238271    -4.922369    -2.058768
 C    -2.043776     0.801784     2.170363
 H    -2.004619    -0.217143     2.565587
 C    -1.876657     2.319815     0.315214
 H    -1.730025     2.525871    -0.745542
 C    -2.257256     1.863221     3.030937
 H    -2.403971     1.707817     4.101112
 C    -2.066397     3.404339     1.176827
 H    -2.065796     4.414607     0.766606
 C    -2.254992     3.179245     2.542536
 O    -2.422960     4.153114     3.460238
 C    -2.410352     5.487178     3.037445
 H    -3.223958     5.698525     2.321304
 H    -2.557112     6.103414     3.933378
 H    -1.446939     5.759962     2.570914
