 102
scf done:    -3055.125985
 C     1.188203    -3.345856     0.771035
 H     1.927235    -3.749895     1.479897
 H     0.207361    -3.649900     1.172587
 C     1.399327    -3.954371    -0.611993
 H     2.378382    -3.679070    -1.037409
 H     1.357809    -5.058813    -0.581735
 H     0.625906    -3.622941    -1.322897
Ir     1.367704    -1.214375     0.578548
 O    -1.724863    -1.744303     1.687779
 O    -1.513983     0.255327     0.105754
 O    -1.537503    -2.194790    -0.740276
 O     0.735642     1.448535    -1.369733
 O     0.788003     2.052778     1.014244
 O     2.955501     1.679559    -0.227290
 P     1.483328     0.962711     0.024889
 P    -0.876773    -1.218604     0.384154
 C     3.043785    -1.384296     1.442418
 O     3.977808    -1.529439     2.089668
 C    -1.523658    -1.273721     2.967328
 C    -0.933647    -0.038867     3.222084
 H    -0.585420     0.592232     2.403121
 C    -1.962670    -2.089293     4.008579
 H    -2.413461    -3.055451     3.776588
 C    -0.761123     0.400266     4.540210
 C    -0.117390     1.732757     4.790504
 H     0.819533     1.829337     4.221407
 H    -0.773036     2.555682     4.462133
 H     0.103843     1.881909     5.856388
 C    -1.800410    -1.648359     5.317716
 H    -2.137258    -2.280037     6.143118
 C    -1.202269    -0.416499     5.584819
 H    -1.072703    -0.086821     6.618654
 C    -2.791456     0.694486    -0.155009
 C    -3.894729     0.289404     0.590944
 H    -3.773847    -0.411477     1.416300
 C    -2.929985     1.610685    -1.194094
 H    -2.034705     1.933298    -1.728332
 C    -5.154348     0.768152     0.241649
 H    -6.022523     0.432424     0.815295
 C    -4.196189     2.085458    -1.518318
 H    -4.302079     2.801931    -2.337573
 C    -5.333938     1.660628    -0.821069
 C    -6.705737     2.123599    -1.217954
 H    -7.156165     1.435905    -1.953967
 H    -6.678960     3.121341    -1.679615
 H    -7.384600     2.165215    -0.353624
 C    -2.884536    -2.306074    -1.035874
 C    -3.374078    -1.656083    -2.165254
 H    -2.690487    -1.076800    -2.788505
 C    -3.726037    -3.060530    -0.227124
 H    -3.314828    -3.573784     0.642274
 C    -4.732528    -1.718465    -2.450374
 H    -5.117852    -1.185143    -3.323399
 C    -5.084715    -3.115250    -0.530961
 H    -5.750313    -3.697396     0.112157
 C    -5.615450    -2.433989    -1.631127
 C    -7.089679    -2.436011    -1.912160
 H    -7.296530    -2.517844    -2.989675
 H    -7.554317    -1.498705    -1.561995
 H    -7.598587    -3.266415    -1.402626
 C     1.132838     0.902550    -2.566240
 C     0.732693    -0.385665    -2.913720
 H     0.098083    -0.952978    -2.231526
 C     1.941136     1.656006    -3.416128
 H     2.241894     2.659449    -3.112238
 C     1.151180    -0.958651    -4.120252
 C     0.746934    -2.363963    -4.457623
 H     1.279329    -3.085491    -3.816958
 H    -0.328719    -2.522865    -4.286890
 H     0.971239    -2.610453    -5.504651
 C     2.347529     1.095213    -4.623576
 H     2.981134     1.673166    -5.300483
 C     1.962488    -0.200072    -4.970966
 H     2.296326    -0.629675    -5.918966
 C     0.272288     3.285128     0.678660
 C    -1.046866     3.549593     1.033204
 H    -1.633834     2.772970     1.525519
 C     1.040082     4.252110     0.034099
 H     2.072694     4.025715    -0.235170
 C    -1.600366     4.791282     0.734438
 H    -2.641401     4.986958     1.005456
 C     0.468151     5.486809    -0.259087
 H     1.071240     6.242187    -0.770796
 C    -0.857238     5.782211     0.083366
 C    -1.451118     7.128994    -0.213304
 H    -1.230760     7.847299     0.594333
 H    -2.545001     7.073805    -0.311279
 H    -1.046115     7.552620    -1.144146
 C     4.131035     0.972898    -0.291661
 C     4.315471    -0.048551    -1.222660
 H     3.519569    -0.293917    -1.928540
 C     5.149070     1.305338     0.598180
 H     4.980063     2.107742     1.318570
 C     5.519985    -0.747699    -1.237548
 H     5.654629    -1.552812    -1.964782
 C     6.347879     0.601281     0.563886
 H     7.140334     0.863032     1.270282
 C     6.552828    -0.445286    -0.344297
 C     7.828110    -1.236622    -0.334158
 H     8.010869    -1.720329    -1.304379
 H     7.788733    -2.032509     0.428326
 H     8.695807    -0.602818    -0.098745
