 102
scf done:    -3054.912865
 C    -1.134411     0.969815    -3.076474
 H    -1.498678     0.251992    -3.831805
 H    -2.033725     1.435557    -2.645308
 C    -0.287630     2.041077    -3.754308
 H     0.580494     1.612307    -4.280958
 H    -0.867666     2.619123    -4.499763
 H     0.111359     2.769214    -3.027193
Ir     0.023848     0.053496    -1.548657
 C    -1.583465     1.677381     1.250464
 C    -3.426249     0.516939    -0.634338
 C    -1.974487    -1.195419     0.988237
 C     1.561279    -1.744805     1.230035
 C     3.385871    -0.503983    -0.604870
 C     1.955000     1.135714     1.119241
 P     1.681979    -0.337347     0.064091
 P    -1.718424     0.331808     0.012986
 C     0.890340    -0.951844    -2.832283
 O     1.304029    -1.738341    -3.574097
 C    -1.218124     1.482630     2.582020
 H    -1.076436     0.465134     2.950047
 C    -1.705845     2.999913     0.773791
 O    -1.936562     3.113085    -0.546470
 C    -2.086436     4.375296    -1.132768
 H    -2.957323     4.913104    -0.719939
 H    -2.244548     4.199322    -2.203671
 H    -1.182378     4.994573    -0.999805
 C    -1.025283     2.563169     3.443582
 H    -0.728932     2.387901     4.479528
 C    -1.561775     4.084257     1.641375
 H    -1.681910     5.105138     1.277891
 C    -1.216775     3.857804     2.973904
 H    -1.076105     4.711398     3.640965
 C    -4.402752     1.321797    -0.035185
 H    -4.147093     1.942288     0.827349
 C    -3.791083    -0.272271    -1.725486
 H    -3.035006    -0.901401    -2.203680
 C    -5.701959     1.342066    -0.520754
 H    -6.470426     1.968175    -0.063135
 C    -5.093114    -0.265474    -2.221332
 H    -5.338412    -0.892258    -3.078848
 C    -6.059245     0.548598    -1.619377
 O    -7.343177     0.633425    -2.024194
 C    -7.756355    -0.137330    -3.116431
 H    -7.638817    -1.218864    -2.925404
 H    -8.820658     0.081009    -3.272131
 H    -7.201512     0.120476    -4.036021
 C    -1.437731    -2.394930     0.500520
 H    -0.802033    -2.352005    -0.390390
 C    -2.812185    -1.245145     2.104992
 H    -3.292998    -0.334832     2.471474
 C    -1.702736    -3.598705     1.131574
 H    -1.285148    -4.536794     0.763948
 C    -3.060977    -2.445661     2.767682
 H    -3.705374    -2.445194     3.647066
 C    -2.495655    -3.632282     2.284797
 O    -2.662434    -4.841584     2.857843
 C    -3.439630    -4.936913     4.016995
 H    -4.483874    -4.623235     3.840886
 H    -3.433795    -5.993103     4.315450
 H    -3.023683    -4.331029     4.841808
 C     1.152412    -1.627634     2.558415
 H     0.971474    -0.634376     2.972701
 C     1.730775    -3.039336     0.691668
 O     2.002167    -3.080100    -0.622964
 C     2.159915    -4.304512    -1.282935
 H     3.037925    -4.857399    -0.906609
 H     2.306430    -4.060273    -2.341932
 H     1.261996    -4.938478    -1.180187
 C     0.963860    -2.754213     3.359809
 H     0.634699    -2.638416     4.394272
 C     1.588090    -4.168939     1.500277
 H     1.745930    -5.166565     1.089433
 C     1.201109    -4.018762     2.832090
 H     1.064839    -4.907901     3.452009
 C     4.396766    -1.211957     0.059872
 H     4.167665    -1.754777     0.980730
 C     3.715069     0.180688    -1.773467
 H     2.936509     0.738885    -2.301481
 C     5.688648    -1.245810    -0.440710
 H     6.480194    -1.803220     0.064062
 C     5.012353     0.162191    -2.285566
 H     5.227962     0.706748    -3.205017
 C     6.009013    -0.558296    -1.620344
 O     7.289857    -0.649256    -2.034210
 C     7.664983     0.013676    -3.207750
 H     7.520158     1.105859    -3.128266
 H     8.732519    -0.191693    -3.359007
 H     7.103544    -0.353132    -4.085400
 C     1.473431     2.364308     0.644534
 H     0.886110     2.378148    -0.280391
 C     2.732806     1.134442     2.279003
 H     3.168683     0.202207     2.645511
 C     1.730402     3.543144     1.323576
 H     1.353139     4.501198     0.963887
 C     2.976390     2.309468     2.988715
 H     3.573911     2.267110     3.899659
 C     2.464186     3.523268     2.515843
 O     2.626994     4.710800     3.134225
 C     3.352254     4.753705     4.329730
 H     4.396118     4.420672     4.191143
 H     3.356257     5.800502     4.659591
 H     2.885694     4.133767     5.116142
