  90
scf done:    -4735.791178
 C    -0.434731     2.696129    -2.604541
 H     0.105116     2.880825    -3.546422
 H    -1.459544     2.418822    -2.891641
 C    -0.451272     3.970452    -1.768213
 H     0.564363     4.274016    -1.464088
 H    -0.889203     4.817401    -2.327721
 H    -1.046545     3.841682    -0.851464
Ir     0.476008     1.126887    -1.454466
 C    -1.899192     0.595923     1.254889
 O    -2.775839     1.677187    -1.037508
 O    -2.290261    -0.797254    -0.920051
 C     1.777321    -2.071233    -0.541475
 O     3.281603     0.001276    -0.134442
 O     1.278244    -0.230898     1.469777
 P     1.634103    -0.305039    -0.143917
 P    -1.585097     0.645828    -0.535970
 C     1.883320     1.294431    -2.679140
 O     2.675401     1.322840    -3.510025
 C    -2.681188    -0.385876     1.859270
 H    -3.099530    -1.175530     1.234423
 C    -1.371490     1.639017     2.039959
 O    -0.678852     2.576196     1.372650
 C    -0.055192     3.623498     2.067209
 H    -0.791705     4.255549     2.592051
 H     0.459897     4.225672     1.309066
 H     0.679501     3.241783     2.796311
 C    -2.934691    -0.353285     3.230111
 H    -3.557468    -1.121798     3.691930
 C    -1.609444     1.668514     3.416830
 H    -1.195807     2.464783     4.035511
 C    -2.393883     0.673306     3.999991
 H    -2.583222     0.708919     5.075493
 C    -4.028351     1.688846    -0.482731
 C    -4.327232     2.640314     0.491429
 H    -3.554718     3.350349     0.791040
 C    -4.993422     0.771527    -0.895691
 H    -4.740466     0.039759    -1.663706
 C    -5.592932     2.670717     1.066634
 H    -5.840342     3.407044     1.832674
 C    -6.261653     0.799521    -0.322426
 H    -7.029297     0.089880    -0.634952
 C    -6.553394     1.744885     0.659926
Cl    -8.129021     1.773090     1.380995
 C    -1.888418    -1.828775    -1.722515
 C    -0.882556    -1.727302    -2.681410
 H    -0.358644    -0.771794    -2.812715
 C    -2.563827    -3.036919    -1.540182
 H    -3.371349    -3.087222    -0.807116
 C    -0.513865    -2.850407    -3.415545
 H     0.295092    -2.785856    -4.144498
 C    -2.202703    -4.157972    -2.280350
 H    -2.716805    -5.109612    -2.136140
 C    -1.162933    -4.063315    -3.203823
Cl    -0.656260    -5.476574    -4.071905
 C     2.751055    -2.482835    -1.456705
 H     3.481235    -1.754558    -1.814073
 C     0.823761    -3.003506    -0.089173
 O    -0.122209    -2.540534     0.749817
 C    -0.873084    -3.458455     1.500648
 H    -1.558671    -4.039210     0.861882
 H    -1.457594    -2.867833     2.215417
 H    -0.214070    -4.144909     2.057622
 C     2.799836    -3.799426    -1.906305
 H     3.564180    -4.104725    -2.623274
 C     0.890838    -4.331326    -0.519212
 H     0.159998    -5.059551    -0.169259
 C     1.869766    -4.719482    -1.429782
 H     1.889454    -5.753232    -1.781074
 C     3.766977     1.278210    -0.104857
 C     4.920157     1.550905    -0.839107
 H     5.381867     0.749416    -1.418042
 C     3.148840     2.290398     0.633226
 H     2.252403     2.065812     1.211899
 C     5.458165     2.833426    -0.841672
 H     6.357194     3.057837    -1.417444
 C     3.680926     3.576115     0.624666
 H     3.206219     4.376980     1.193748
 C     4.832625     3.844142    -0.112442
Cl     5.492727     5.446258    -0.121268
 C     1.675917    -1.087791     2.456356
 C     0.796049    -1.257577     3.526146
 H    -0.151448    -0.717917     3.516582
 C     2.897274    -1.762506     2.434452
 H     3.591922    -1.610512     1.608463
 C     1.126439    -2.111524     4.571114
 H     0.443855    -2.252616     5.410730
 C     3.224416    -2.625734     3.478362
 H     4.174197    -3.162598     3.471046
 C     2.339524    -2.800791     4.539322
Cl     2.748496    -3.878372     5.835045
