  70
scf done:    -1987.876720
 C    -3.431092    -0.932686     0.051370
 H    -3.931270    -1.910229     0.140055
 H    -3.850256    -0.323249     0.864907
 C    -3.792511    -0.304598    -1.292538
 H    -3.451322    -0.924041    -2.137936
 H    -4.884793    -0.169372    -1.410944
 H    -3.328117     0.688492    -1.419444
Ir    -1.305598    -1.106626     0.070410
 C     0.053002     2.203759     0.199194
 C    -2.613068     2.048283     1.392482
 C    -0.341075     0.898514     2.725289
 C     2.287107    -0.962201     0.500782
 C     1.424663    -2.855980    -1.369103
 C     1.163306    -0.071063    -2.118842
 P     0.900694    -1.214803    -0.686854
 P    -1.093296     1.040328     1.045110
 C    -1.493080    -2.936884     0.153664
 O    -1.583661    -4.070744     0.368158
 C     1.397917     2.296867     0.567517
 H     1.759926     1.744936     1.435725
 C    -0.367717     2.888348    -0.959830
 O    -1.662939     2.728644    -1.301168
 C    -2.150449     3.317096    -2.475685
 H    -2.087521     4.418192    -2.435081
 H    -3.203250     3.019613    -2.557770
 H    -1.607239     2.954960    -3.365025
 C     2.306341     3.056983    -0.169709
 H     3.350224     3.110841     0.146118
 C     0.535759     3.654208    -1.701634
 H     0.208700     4.182444    -2.597230
 C     1.870015     3.735935    -1.301719
 H     2.568200     4.335913    -1.890189
 H    -3.227021     1.984379     0.484604
 C    -3.403742     1.580187     2.608247
 H    -2.909300     1.838557     3.554977
 H    -3.558847     0.491902     2.603009
 H    -2.313212     3.103036     1.495896
 H    -4.397206     2.054236     2.617966
 H     0.603323     0.352014     2.597906
 C    -0.127456     2.186164     3.508301
 H    -1.068381     2.720514     3.699989
 H     0.540003     2.883423     2.982613
 H    -1.002863     0.202453     3.264187
 H     0.328361     1.963542     4.485755
 C     2.037194    -1.394385     1.806091
 H     1.047530    -1.814581     2.016679
 C     3.558491    -0.429266     0.205140
 O     3.798201    -0.092224    -1.078317
 C     5.015354     0.504723    -1.422012
 H     5.170572     1.456477    -0.884573
 H     4.968444     0.710939    -2.498839
 H     5.872258    -0.162164    -1.222232
 C     2.990502    -1.275095     2.817478
 H     2.766357    -1.620633     3.828590
 C     4.507515    -0.274049     1.222384
 H     5.483475     0.161255     1.006504
 C     4.218967    -0.694991     2.520771
 H     4.974221    -0.571803     3.300910
 H     1.342399    -3.561246    -0.526122
 C     0.614106    -3.342804    -2.558339
 H     0.792635    -2.724227    -3.450724
 H    -0.465044    -3.322760    -2.343613
 H     2.495268    -2.777534    -1.621592
 H     0.887023    -4.377835    -2.815000
 H     1.986210    -0.465904    -2.732367
 C    -0.104081     0.134282    -2.936418
 H    -0.930669     0.491700    -2.304160
 H    -0.448259    -0.793200    -3.415523
 H     1.517726     0.884473    -1.710253
 H     0.073203     0.878331    -3.729899
