  98
scf done:    -2754.258284
 C    -1.300435     0.766350    -3.032161
 H    -1.534357    -0.005723    -3.785331
 H    -2.267096     1.064904    -2.598205
 C    -0.659666     1.970354    -3.713249
 H     0.267376     1.701355    -4.245165
 H    -1.336885     2.436711    -4.454847
 H    -0.390671     2.757292    -2.987688
Ir     0.007960     0.067375    -1.510093
 C    -1.859193     1.346824     1.308100
 C    -3.468072    -0.098200    -0.598652
 C    -1.748131    -1.547568     1.005661
 C     1.846273    -1.465527     1.241138
 C     3.416664     0.116217    -0.570884
 C     1.729505     1.442497     1.177602
 P     1.708503    -0.041318     0.097874
 P    -1.751654     0.017275     0.050947
 C     1.041328    -0.754996    -2.801946
 O     1.590776    -1.447171    -3.548973
 C    -1.486690     1.200145     2.643640
 H    -1.175537     0.218350     3.004520
 C    -2.200920     2.634293     0.842422
 O    -2.420909     2.722512    -0.481299
 C    -2.788596     3.943728    -1.058513
 H    -3.750584     4.307600    -0.658191
 H    -2.892032     3.755964    -2.134045
 H    -2.015683     4.715982    -0.901296
 C    -1.504620     2.285129     3.521105
 H    -1.202712     2.149907     4.561332
 C    -2.268131     3.714403     1.724341
 H    -2.563765     4.702274     1.369963
 C    -1.917508     3.531133     3.062449
 H    -1.956520     4.382952     3.745920
 C    -3.684552    -0.953448    -1.684866
 H    -2.828996    -1.451032    -2.150174
 C    -4.564164     0.535362    -0.012764
 H    -4.422340     1.196309     0.845822
 C    -4.968144    -1.162227    -2.173449
 H    -5.115254    -1.833324    -3.024518
 C    -5.848956     0.325022    -0.511289
 H    -6.696584     0.830591    -0.039681
 C    -6.075245    -0.523245    -1.598980
 C    -7.454647    -0.737183    -2.150167
 H    -8.224052    -0.310737    -1.491163
 H    -7.562955    -0.264197    -3.140129
 H    -7.672361    -1.808550    -2.280190
 C    -2.577390    -1.752329     2.114170
 H    -3.217016    -0.945131     2.479213
 C    -1.002602    -2.622816     0.513884
 H    -0.378817    -2.458875    -0.371161
 C    -2.605514    -2.988365     2.752617
 H    -3.246080    -3.126994     3.628157
 C    -1.059293    -3.862817     1.139952
 H    -0.469463    -4.691865     0.740976
 C    -1.840553    -4.062472     2.282679
 C    -1.833067    -5.383705     2.991942
 H    -1.869870    -6.223055     2.281268
 H    -0.907680    -5.499340     3.581424
 H    -2.682150    -5.480604     3.683254
 C     1.434624    -1.444334     2.573446
 H     1.079050    -0.507379     3.005749
 C     2.242949    -2.698929     0.679191
 O     2.504645    -2.668434    -0.637580
 C     2.887449    -3.830394    -1.318284
 H     3.855963    -4.213202    -0.952731
 H     2.979570    -3.545833    -2.373272
 H     2.125898    -4.624055    -1.224251
 C     1.466897    -2.597386     3.358789
 H     1.135332    -2.558756     4.398130
 C     2.319339    -3.847074     1.470417
 H     2.657148    -4.791650     1.042990
 C     1.930280    -3.787857     2.809256
 H     1.980078    -4.692568     3.420296
 C     3.611265     0.883462    -1.721962
 H     2.743160     1.308909    -2.233794
 C     4.534471    -0.416963     0.076849
 H     4.407813    -1.013105     0.984366
 C     4.893154     1.103098    -2.217782
 H     5.022034     1.707318    -3.120267
 C     5.812965    -0.200117    -0.428211
 H     6.674782    -0.630520     0.090274
 C     6.017243     0.560777    -1.585500
 C     7.394325     0.763874    -2.146594
 H     8.162910     0.706883    -1.362106
 H     7.632405    -0.010116    -2.895705
 H     7.485936     1.738926    -2.647167
 C     2.508022     1.554066     2.334504
 H     3.104086     0.706127     2.679324
 C     1.035434     2.569921     0.726976
 H     0.447116     2.494393    -0.194335
 C     2.540339     2.747105     3.050603
 H     3.142641     2.811083     3.961278
 C     1.092906     3.766194     1.432355
 H     0.542661     4.634937     1.062170
 C     1.827466     3.871123     2.618107
 C     1.822970     5.144667     3.409911
 H     0.879749     5.246040     3.973274
 H     2.647964     5.176212     4.135591
 H     1.905362     6.026336     2.756644
