 106
scf done:    -2459.324647
 C     2.242661    -3.283975    -0.173035
 H     2.204780    -4.206364    -0.773663
 H     3.240132    -2.859356    -0.366782
 C     2.113809    -3.641841     1.305900
 H     1.161105    -4.153032     1.521100
 H     2.921996    -4.318224     1.642654
 H     2.147281    -2.752150     1.959705
Ir     0.641686    -1.951058    -0.624904
 O     1.311764     0.487288     1.562366
 C     3.679489    -0.314017     0.466826
 C     1.828745     1.243894    -1.097546
 O    -1.322594     0.881209    -0.795270
 C    -2.799554    -1.400525    -1.308833
 C    -1.813524    -0.744466     1.350864
 P    -1.315593    -0.778699    -0.414473
 P     1.893016    -0.134334     0.106136
 C    -0.013195    -3.174400    -1.860794
 O    -0.355779    -3.849900    -2.731229
 C     1.405558     1.784336     1.978769
 C     0.489809     2.723270     1.498954
 H    -0.261771     2.390793     0.782573
 C     2.384161     2.155997     2.899156
 H     3.074247     1.402474     3.282792
 C     0.560983     4.059483     1.895584
 C    -0.393361     5.074135     1.335045
 H    -1.211530     4.593477     0.780056
 H    -0.831249     5.696679     2.130405
 H     0.124466     5.755804     0.640222
 C     2.453237     3.488223     3.306155
 H     3.218305     3.792293     4.024774
 C     1.560504     4.432696     2.805659
 H     1.633193     5.474105     3.130157
 H     4.024214     0.594421     0.987749
 H     3.765931    -1.150729     1.178980
 C     4.514191    -0.582650    -0.783133
 H     3.985142    -1.293337    -1.441043
 H     4.617498     0.346744    -1.366888
 C     5.896684    -1.131708    -0.461392
 H     5.785753    -2.075828     0.102242
 H     6.420883    -0.434810     0.217989
 C     6.751287    -1.378908    -1.696219
 H     6.215358    -2.069962    -2.370385
 H     6.856642    -0.434397    -2.259286
 C     8.127014    -1.939913    -1.375108
 H     8.720104    -2.109148    -2.286551
 H     8.050926    -2.902632    -0.844537
 H     8.698177    -1.253619    -0.729103
 H     2.032105     0.752767    -2.064201
 H     0.763356     1.517367    -1.143670
 C     2.719974     2.468646    -0.888750
 H     2.842661     2.690754     0.181745
 H     3.735191     2.268650    -1.269449
 C     2.154949     3.708689    -1.568153
 H     1.113233     3.853763    -1.229530
 H     2.094335     3.543058    -2.659199
 C     2.952230     4.971581    -1.278039
 H     2.995969     5.117078    -0.183714
 H     3.997936     4.827759    -1.603293
 C     2.375901     6.213341    -1.938650
 H     2.966310     7.112016    -1.703864
 H     1.341538     6.398150    -1.605223
 H     2.350007     6.109058    -3.035282
 C    -2.426010     1.675681    -0.900635
 C    -2.977121     2.279971     0.230674
 H    -2.524711     2.091918     1.206566
 C    -2.972752     1.917050    -2.163689
 H    -2.511783     1.455321    -3.038540
 C    -4.099709     3.109725     0.125057
 C    -4.668249     3.762471     1.351554
 H    -4.854191     3.025591     2.147923
 H    -3.967071     4.508301     1.760411
 H    -5.614758     4.275994     1.133838
 C    -4.093379     2.733645    -2.272892
 H    -4.533051     2.918422    -3.255998
 C    -4.658197     3.320353    -1.140012
 H    -5.538984     3.959478    -1.239880
 H    -2.687481    -1.033041    -2.343660
 H    -2.651920    -2.490958    -1.373830
 C    -4.186259    -1.082628    -0.762010
 H    -4.331100    -1.605276     0.199010
 H    -4.280967    -0.008349    -0.541251
 C    -5.296958    -1.479646    -1.724139
 H    -5.227438    -2.559515    -1.949180
 H    -5.138904    -0.960989    -2.687287
 C    -6.688558    -1.152372    -1.201479
 H    -6.842905    -1.665257    -0.235443
 H    -6.739791    -0.071833    -0.978000
 C    -7.801000    -1.530701    -2.165650
 H    -8.793325    -1.279763    -1.761171
 H    -7.793277    -2.611309    -2.381180
 H    -7.691093    -1.004359    -3.127554
 H    -1.055092    -0.114244     1.843351
 H    -2.793469    -0.255081     1.466403
 C    -1.807523    -2.138245     1.967608
 H    -2.574843    -2.771288     1.486807
 H    -0.838789    -2.618666     1.740363
 C    -2.030935    -2.123674     3.472286
 H    -3.002092    -1.646130     3.699420
 H    -1.263359    -1.482283     3.941900
 C    -1.985642    -3.509415     4.100417
 H    -2.749927    -4.148455     3.623424
 H    -1.014807    -3.978419     3.861705
 C    -2.194160    -3.497818     5.605953
 H    -2.153891    -4.512499     6.030253
 H    -3.172393    -3.064963     5.871283
 H    -1.421691    -2.895498     6.110755
