 110
scf done:    -2611.611471
 C    -1.223509     0.828299    -3.040620
 H    -1.513820     0.037839    -3.755001
 H    -2.168387     1.221690    -2.632363
 C    -0.517011     1.953993    -3.789579
 H     0.384746     1.597715    -4.312961
 H    -1.171307     2.425295    -4.548007
 H    -0.187621     2.755721    -3.106602
Ir     0.022302     0.115837    -1.471277
 C    -1.781674     0.991581     1.527014
 C    -3.489705     0.175814    -0.647412
 C    -1.735697    -1.810744     0.783091
 C     1.744150    -1.204471     1.482582
 C     3.402801    -0.129734    -0.625098
 C     1.713711     1.674565     1.104483
 P     1.716701     0.071936     0.158102
 P    -1.779611    -0.102137     0.045765
 C     1.105683    -0.658005    -2.737604
 O     1.704249    -1.340010    -3.462486
 C    -1.517645     0.556261     2.826860
 H    -1.337551    -0.502114     3.015065
 C    -1.982086     2.374687     1.320447
 O    -2.184636     2.749242     0.041863
 C    -2.376632     4.100600    -0.276593
 H    -3.290910     4.502014     0.193822
 H    -2.481561     4.146731    -1.367689
 H    -1.512826     4.715267     0.026050
 C    -1.461120     1.447794     3.900376
 H    -1.248334     1.076929     4.905190
 C    -1.959766     3.268458     2.393461
 H    -2.136682     4.331833     2.231062
 C    -1.693637     2.800440     3.680859
 H    -1.668809     3.507758     4.513087
 H    -3.333297     1.113378    -1.203982
 C    -4.634597     0.446431     0.329258
 H    -4.349865     1.216049     1.062250
 H    -4.871659    -0.459779     0.908501
 C    -5.878581     0.888971    -0.438287
 H    -6.712203     1.064807     0.261485
 H    -5.671525     1.859004    -0.926235
 C    -6.280406    -0.130447    -1.499291
 H    -7.155086     0.228835    -2.065826
 H    -6.598007    -1.063387    -0.998267
 C    -5.123957    -0.442243    -2.443393
 H    -4.875366     0.457751    -3.033870
 H    -5.417735    -1.217975    -3.169139
 C    -3.881537    -0.884759    -1.676711
 H    -4.097848    -1.839378    -1.167202
 H    -3.044444    -1.071857    -2.366078
 H    -0.861121    -1.758087     1.457476
 C    -1.403123    -2.879397    -0.265179
 H    -0.496308    -2.571954    -0.809830
 H    -2.209254    -2.930654    -1.014201
 C    -1.231166    -4.250306     0.381259
 H    -1.042128    -5.007421    -0.398061
 H    -0.338706    -4.229949     1.028468
 C    -2.432942    -4.648261     1.229555
 H    -2.255424    -5.621029     1.716943
 H    -3.315989    -4.782420     0.578407
 C    -2.740365    -3.576962     2.268593
 H    -1.896528    -3.502390     2.979005
 H    -3.627423    -3.853775     2.861598
 C    -2.959840    -2.221265     1.604180
 H    -3.832807    -2.297888     0.935689
 H    -3.213559    -1.458969     2.355961
 C     1.479339    -0.939708     2.828089
 H     1.301130     0.086700     3.149765
 C     1.953461    -2.550130     1.102249
 O     2.165881    -2.757927    -0.209721
 C     2.386473    -4.050784    -0.703681
 H     3.307726    -4.492415    -0.285535
 H     2.494039    -3.944798    -1.790356
 H     1.534891    -4.717696    -0.490749
 C     1.423246    -1.960688     3.779180
 H     1.210692    -1.721492     4.823288
 C     1.930224    -3.573006     2.053450
 H     2.112612    -4.606079     1.756474
 C     1.657909    -3.274262     3.388930
 H     1.632702    -4.082072     4.124023
 H     3.211524    -0.992787    -1.281541
 C     4.578646    -0.523228     0.268842
 H     4.306196    -1.361708     0.927119
 H     4.857932     0.312253     0.930355
 C     5.780344    -0.902781    -0.594162
 H     6.637205    -1.170826     0.045724
 H     5.529194    -1.808627    -1.175469
 C     6.163367     0.219138    -1.553904
 H     7.002920    -0.094332    -2.195796
 H     6.527341     1.083377    -0.968231
 C     4.976882     0.659876    -2.404831
 H     4.678084    -0.161057    -3.080588
 H     5.260178     1.507575    -3.049859
 C     3.778848     1.037299    -1.538814
 H     4.037299     1.923290    -0.933111
 H     2.919438     1.317934    -2.168896
 H     0.855525     1.558733     1.791981
 C     1.368309     2.850706     0.181264
 H     0.439745     2.623523    -0.369454
 H     2.151604     2.966074    -0.584149
 C     1.236841     4.153117     0.964823
 H     1.042483     4.987665     0.270388
 H     0.361031     4.081899     1.630983
 C     2.469411     4.443346     1.812866
 H     2.324619     5.366677     2.397406
 H     3.336641     4.625575     1.152292
 C     2.783686     3.269929     2.733050
 H     1.957098     3.139197     3.455480
 H     3.690065     3.474060     3.326242
 C     2.961222     1.983243     1.933159
 H     3.821138     2.108903     1.255245
 H     3.213385     1.143759     2.598721
