 102
scf done:    -3055.049746
 C     1.217468    -3.194491     0.487451
 H     1.712793    -3.760156    -0.317992
 H     2.024622    -2.830347     1.139688
 C     0.285091    -4.102125     1.279737
 H    -0.511205    -4.532860     0.651140
 H     0.827766    -4.947307     1.744891
 H    -0.217286    -3.553924     2.094645
Ir     0.049361    -1.569576    -0.259048
 C     1.194162     0.760753     2.275123
 O     3.030219    -0.450989     0.838221
 O     1.503964     1.232841    -0.375530
 C    -1.489754     1.278163    -1.957777
 O    -2.987903    -0.681904    -1.175685
 O    -1.984269     0.754668     0.729333
 P    -1.546370    -0.007487    -0.666230
 P     1.438736    -0.046086     0.668610
 C    -0.394101    -2.668034    -1.716451
 O    -0.487610    -3.227870    -2.718846
 C     0.848299     2.105825     2.383119
 H     0.789649     2.707826     1.476652
 C     1.218989    -0.044757     3.430485
 O     1.515653    -1.338051     3.228402
 C     1.502800    -2.237236     4.303479
 H     2.261514    -1.973849     5.060363
 H     1.738060    -3.222220     3.883113
 H     0.510368    -2.279017     4.784148
 C     0.566489     2.670579     3.626533
 H     0.306307     3.728321     3.701512
 C     0.931974     0.516420     4.678231
 H     0.953454    -0.094668     5.580704
 C     0.613433     1.872084     4.765881
 H     0.393447     2.303001     5.745699
 C     3.722178    -1.196435    -0.083433
 C     3.375083    -1.222951    -1.430975
 H     2.525026    -0.636972    -1.786347
 C     4.807884    -1.931828     0.391215
 H     5.052103    -1.887945     1.453804
 C     4.089915    -2.026067    -2.327442
 C     3.660311    -2.088661    -3.764066
 H     2.652644    -2.527315    -3.848589
 H     3.612229    -1.082816    -4.209727
 H     4.348209    -2.697756    -4.366802
 C     5.534274    -2.709646    -0.502669
 H     6.386394    -3.291187    -0.142462
 C     5.174744    -2.765999    -1.850254
 H     5.743979    -3.393800    -2.540400
 C     2.445742     2.209865    -0.542373
 C     3.448925     2.493475     0.382269
 H     3.540618     1.895628     1.288970
 C     2.337138     2.950834    -1.722490
 H     1.553260     2.693175    -2.435943
 C     4.350819     3.538937     0.145642
 C     5.437114     3.818879     1.143493
 H     5.029594     3.912254     2.161986
 H     6.171427     2.997354     1.163966
 H     5.976716     4.745681     0.903940
 C     3.227536     3.992297    -1.952668
 H     3.145126     4.576304    -2.872758
 C     4.226728     4.290722    -1.025484
 H     4.923730     5.110329    -1.217142
 C    -1.719146     0.841722    -3.267190
 H    -1.978805    -0.206001    -3.434417
 C    -1.137184     2.625784    -1.739402
 O    -0.879892     3.007402    -0.479016
 C    -0.787022     4.373519    -0.175338
 H     0.125427     4.822480    -0.603366
 H    -0.745451     4.442802     0.918770
 H    -1.676655     4.922981    -0.526418
 C    -1.635471     1.712964    -4.349127
 H    -1.821799     1.349773    -5.361401
 C    -1.074365     3.506301    -2.827327
 H    -0.816549     4.552943    -2.666964
 C    -1.319198     3.048980    -4.119459
 H    -1.255395     3.751026    -4.954374
 C    -3.383322    -1.912624    -0.718934
 C    -3.264307    -2.263942     0.625503
 H    -2.863409    -1.538447     1.336902
 C    -3.912757    -2.807546    -1.646657
 H    -3.987539    -2.508037    -2.693188
 C    -3.659571    -3.533402     1.061869
 C    -3.485914    -3.920125     2.501318
 H    -2.435445    -4.186229     2.703513
 H    -3.748217    -3.090295     3.174420
 H    -4.106965    -4.787795     2.764723
 C    -4.317162    -4.065697    -1.212572
 H    -4.731200    -4.776413    -1.931725
 C    -4.188623    -4.429309     0.127469
 H    -4.504942    -5.423176     0.454075
 C    -2.926024     1.725712     0.931666
 C    -3.943049     2.009041     0.023420
 H    -4.033994     1.422418    -0.891336
 C    -2.820334     2.436548     2.129361
 H    -2.015767     2.182227     2.820735
 C    -4.852806     3.042107     0.285535
 C    -5.937625     3.342082    -0.708244
 H    -5.517518     3.536258    -1.707576
 H    -6.626986     2.488629    -0.809968
 H    -6.528567     4.218988    -0.409257
 C    -3.728631     3.454039     2.392901
 H    -3.650677     4.016893     3.326617
 C    -4.733723     3.765227     1.475204
 H    -5.439707     4.571516     1.689671
