  98
scf done:    -3151.085105
 C     0.428530    -3.752864     0.937563
 H     0.015015    -4.707583     0.577317
 H     1.510734    -3.817789     0.742728
 C     0.178731    -3.624547     2.436164
 H    -0.896651    -3.578496     2.672659
 H     0.596018    -4.479515     2.999700
 H     0.638753    -2.713316     2.857595
Ir    -0.540307    -2.065121     0.068582
 O     1.306824     0.498803     1.315339
 C     2.987852    -1.581804     0.721875
 C     1.766211     0.037759    -1.356958
 O    -1.169725     1.074982    -1.128154
 C    -3.565731    -0.156004    -0.687583
 C    -1.866315     0.750027     1.481149
 P    -1.790263    -0.147191    -0.147931
 P     1.380145    -0.805413     0.246844
 C    -1.584527    -3.225233    -0.939537
 O    -2.067301    -3.919448    -1.727037
 C     2.164789     0.789070     2.342329
 C     3.064222     1.844334     2.194423
 H     3.083545     2.387195     1.250785
 C     2.100523     0.073549     3.537063
 H     1.381366    -0.741302     3.643106
 C     3.925234     2.200488     3.234958
 C     4.886908     3.341645     3.068230
 H     4.846869     3.758533     2.052388
 H     4.661549     4.155043     3.776374
 H     5.922188     3.021881     3.265114
 C     2.962611     0.420813     4.576205
 H     2.923094    -0.136040     5.515466
 C     3.866757     1.469721     4.429447
 H     4.535536     1.729016     5.254449
 H     3.635754    -0.778614     1.104911
 H     2.770088    -2.241592     1.578811
 C     3.706314    -2.332709    -0.367676
 C     3.043901    -3.148854    -1.296186
 H     1.955097    -3.244754    -1.255190
 C     5.100061    -2.224745    -0.461853
 H     5.637979    -1.594784     0.252069
 C     3.747558    -3.832012    -2.284629
 H     3.234737    -4.464762    -3.011144
 C     5.818813    -2.905216    -1.441194
 H     6.904788    -2.824900    -1.514691
 C     5.129167    -3.703939    -2.344404
 F     5.806399    -4.354805    -3.287976
 H     2.256878    -0.727270    -1.976597
 H     0.789105     0.257328    -1.801550
 C     2.590246     1.280489    -1.237407
 C     1.957991     2.527123    -1.134697
 H     0.867869     2.574972    -1.175223
 C     3.988777     1.234672    -1.192730
 H     4.499159     0.273746    -1.293251
 C     2.696455     3.695755    -0.967400
 H     2.213027     4.670789    -0.882164
 C     4.741671     2.393966    -1.020127
 H     5.831919     2.368337    -0.976264
 C     4.082075     3.610213    -0.898191
 F     4.795888     4.720149    -0.696797
 C    -1.755618     1.644471    -2.223788
 C    -2.194251     2.965132    -2.134161
 H    -2.094464     3.484553    -1.181726
 C    -1.853913     0.941145    -3.423901
 H    -1.490941    -0.087823    -3.480698
 C    -2.746190     3.610625    -3.242184
 C    -3.217349     5.032299    -3.134473
 H    -3.000194     5.453228    -2.142602
 H    -2.732766     5.670739    -3.889599
 H    -4.304053     5.103557    -3.301954
 C    -2.411987     1.580003    -4.530909
 H    -2.495915     1.039810    -5.477003
 C    -2.853557     2.897886    -4.444509
 H    -3.284588     3.383978    -5.323707
 H    -3.920547     0.886308    -0.650661
 H    -3.562045    -0.454235    -1.746246
 C    -4.437150    -1.073965     0.118107
 C    -4.642505    -2.399971    -0.285047
 H    -4.190904    -2.760586    -1.209802
 C    -5.067801    -0.643275     1.293227
 H    -4.960330     0.392274     1.620940
 C    -5.424662    -3.273934     0.463469
 H    -5.581441    -4.307146     0.149154
 C    -5.855056    -1.502188     2.054945
 H    -6.349638    -1.166095     2.967818
 C    -6.016890    -2.815392     1.632795
 F    -6.765634    -3.644800     2.356443
 H    -2.682237     0.274176     2.046011
 H    -0.924359     0.500290     1.986571
 C    -2.020855     2.235808     1.372346
 C    -0.876731     3.039405     1.256307
 H     0.105854     2.565449     1.288402
 C    -3.272048     2.861432     1.329155
 H    -4.183439     2.269714     1.434450
 C    -0.975137     4.415904     1.081053
 H    -0.087000     5.043233     0.984362
 C    -3.390258     4.238976     1.150576
 H    -4.364337     4.729242     1.109186
 C    -2.236124     4.998296     1.016314
 F    -2.340933     6.312321     0.811120
