  62
scf done:    -1759.001972
 C    -1.724121    -2.994174     0.275892
 H    -1.490380    -3.794301     0.999536
 H    -2.561035    -2.445504     0.746785
 C    -2.218852    -3.624588    -1.023802
 H    -1.451735    -4.272114    -1.477123
 H    -3.121937    -4.245674    -0.873324
 H    -2.470594    -2.868477    -1.786522
Ir     0.026826    -1.770397    -0.011615
 C    -2.958473    -0.001916    -0.658916
 C    -2.057348    -0.031316     2.138314
 C    -0.949783     1.796158     0.295946
 C     2.604617     0.435667     1.011684
 C     3.392344    -1.497594    -0.961926
 C     1.870252     0.713903    -1.796011
 P     1.928067    -0.524846    -0.440639
 P    -1.442788     0.031544     0.417169
 C     0.963860    -3.365686    -0.083312
 O     1.528995    -4.371020    -0.078018
 H    -2.587613     0.189674    -1.678004
 H    -3.311327    -1.042370    -0.641685
 C    -4.046782     0.952779    -0.279171
 C    -5.018829     0.587309     0.660203
 H    -5.002181    -0.417680     1.090171
 C    -4.100965     2.239674    -0.827973
 H    -3.355404     2.529241    -1.575135
 C    -6.004059     1.494446     1.041448
 H    -6.758078     1.199898     1.775506
 C    -5.084978     3.162534    -0.459960
 C    -5.140985     4.522095    -1.094626
 H    -4.156283     4.834255    -1.471218
 H    -5.836405     4.527522    -1.950559
 H    -5.494361     5.284103    -0.384588
 C    -6.035262     2.773439     0.491208
 H    -6.811808     3.479487     0.797976
 H    -1.198276     0.130836     2.805134
 H    -2.823315     0.736080     2.323685
 H    -2.464903    -1.029137     2.347481
 H    -1.764896     2.451498     0.636462
 H    -0.061996     1.976517     0.917850
 H    -0.705503     2.048131    -0.745263
 H     1.763836     1.031207     1.396662
 H     2.812209    -0.332356     1.772836
 C     3.800814     1.293710     0.747236
 C     5.099044     0.790355     0.889564
 H     5.245615    -0.233420     1.243393
 C     3.645043     2.615588     0.309071
 H     2.634557     3.023056     0.203637
 C     6.200884     1.588426     0.588859
 H     7.210004     1.184946     0.703548
 C     4.737652     3.431544     0.005387
 C     4.541682     4.853749    -0.434531
 H     5.223647     5.117694    -1.256731
 H     3.511703     5.034027    -0.773702
 H     4.745438     5.554094     0.392413
 C     6.024216     2.896014     0.145976
 H     6.895003     3.514185    -0.089266
 H     3.644159    -2.230542    -0.182068
 H     3.129164    -2.052936    -1.873836
 H     4.263461    -0.856050    -1.160587
 H     1.129946     1.493393    -1.574867
 H     2.849799     1.186288    -1.962074
 H     1.552947     0.189960    -2.709364
