  86
scf done:    -2597.186028
 C    -1.045966    -0.753257    -2.904933
 H    -0.404538    -1.073530    -3.742815
 H    -1.621624    -1.650936    -2.625380
 C    -1.991559     0.343674    -3.378440
 H    -1.443045     1.234708    -3.725357
 H    -2.628697     0.005668    -4.216416
 H    -2.673406     0.670466    -2.576599
Ir     0.114676     0.053539    -1.284429
 O    -0.904144    -2.890517    -0.282615
 C    -1.251654    -1.275814     1.854758
 C    -3.028865    -1.324541    -0.368202
 O     0.315772     1.807350     1.640696
 C     2.535800     0.453111     1.295255
 C     1.989723     2.813818    -0.235730
 P     1.209468     1.249959     0.331988
 P    -1.257854    -1.282857     0.024566
 C     1.513389     0.188400    -2.500870
 O     2.413055     0.062274    -3.213749
 C     0.393926    -3.341446    -0.307558
 C     1.154447    -3.208166    -1.466434
 H     0.698537    -2.741569    -2.339749
 C     0.924722    -3.951220     0.829536
 H     0.303589    -4.054623     1.720263
 C     2.478935    -3.659068    -1.502873
 C     3.293216    -3.488114    -2.752490
 H     3.323784    -2.431961    -3.063152
 H     4.326159    -3.836189    -2.612033
 H     2.856947    -4.055640    -3.589960
 C     2.239295    -4.408749     0.795527
 H     2.667510    -4.885551     1.680464
 C     3.011820    -4.257811    -0.355530
 H     4.044051    -4.618348    -0.368763
 C    -0.014770    -1.262365     2.509164
 C    -2.426043    -1.323880     2.616301
 C    -1.122507    -1.311394     4.652288
 C    -2.359088    -1.336368     4.007542
 C     0.050857    -1.281234     3.899631
 H     0.908235    -1.243251     1.929919
 H     1.026719    -1.265246     4.390276
 H    -1.074000    -1.319016     5.744048
 H    -3.281924    -1.365089     4.591857
 H    -3.398614    -1.341747     2.121846
 C    -3.681107    -2.486140    -0.788701
 C    -3.743056    -0.127737    -0.242139
 C    -5.756444    -1.253486    -0.951468
 C    -5.105278    -0.095519    -0.525160
 C    -5.043314    -2.444217    -1.084240
 H    -3.115045    -3.414304    -0.882788
 H    -5.551522    -3.351360    -1.419990
 H    -6.824085    -1.227501    -1.182821
 H    -5.656015     0.841912    -0.416101
 H    -3.233390     0.780830     0.086467
 C    -0.975294     2.220917     1.531955
 C    -1.487204     2.799622     0.369410
 H    -0.845528     2.924815    -0.504244
 C    -1.791325     2.056853     2.654741
 H    -1.376720     1.575045     3.541628
 C    -2.818965     3.232449     0.312600
 C    -3.357030     3.810250    -0.963640
 H    -2.696181     4.597811    -1.356702
 H    -3.429418     3.032926    -1.742400
 H    -4.357745     4.241552    -0.822061
 C    -3.109654     2.491618     2.602754
 H    -3.751609     2.361972     3.477334
 C    -3.624067     3.078292     1.444180
 H    -4.664016     3.413305     1.416861
 C     2.803394     0.784603     2.629962
 C     3.261187    -0.571102     0.676317
 C     4.536692    -0.899131     2.700204
 C     4.262301    -1.240126     1.376984
 C     3.803253     0.109847     3.326316
 H     2.199641     1.546730     3.126552
 H     4.005975     0.367516     4.368914
 H     5.315615    -1.430818     3.252126
 H     4.811730    -2.047377     0.888620
 H     3.009830    -0.873074    -0.343499
 C     1.649217     3.331371    -1.490400
 C     2.875410     3.529893     0.579231
 C     3.064098     5.248196    -1.108543
 C     3.409039     4.739740     0.144094
 C     2.183075     4.542699    -1.925366
 H     0.960106     2.769980    -2.128194
 H     1.911144     4.933698    -2.908561
 H     3.487519     6.196109    -1.449445
 H     4.103326     5.287829     0.785443
 H     3.161381     3.135550     1.556287
