  86
scf done:    -4435.059470
 C    -1.781125    -2.191310    -2.449931
 H    -1.763866    -3.285680    -2.577798
 H    -2.774670    -1.965749    -2.027580
 C    -1.633990    -1.509886    -3.805759
 H    -0.668040    -1.747106    -4.279862
 H    -2.426409    -1.823800    -4.510325
 H    -1.702772    -0.414394    -3.716213
Ir    -0.190682    -1.514781    -1.176228
 O    -2.681067     0.661437    -1.636587
 C    -2.860654    -0.638666     0.794308
 C    -1.208561     1.658117     0.368566
 O     1.392938     0.063099     1.364718
 C     2.920720    -1.925497     0.321174
 C     2.582181     0.565004    -1.065863
 P     1.653437    -0.688989    -0.121574
 P    -1.696413     0.076071    -0.409209
 C     0.598691    -3.187939    -1.435607
 O     1.013878    -4.256711    -1.506378
 C    -3.982506     1.054738    -1.452618
 C    -4.986124     0.088369    -1.438880
 H    -4.705654    -0.958015    -1.579269
 C    -4.292885     2.403798    -1.279550
 H    -3.499588     3.151280    -1.301143
 C    -6.318054     0.443009    -1.208765
 C    -7.373607    -0.618976    -1.109874
 H    -7.321449    -1.124566    -0.130772
 H    -8.383477    -0.198281    -1.214318
 H    -7.240103    -1.392312    -1.880669
 C    -5.622180     2.765006    -1.071450
 H    -5.878616     3.818770    -0.937979
 C    -6.623767     1.796749    -1.026092
 H    -7.660273     2.095059    -0.849023
 C    -2.884196    -2.028281     0.958880
 H    -2.132136    -2.628507     0.435744
 C    -3.810619     0.147171     1.464013
 H    -3.813424     1.232692     1.346454
 C    -3.848764    -2.631534     1.760149
 H    -3.875062    -3.714795     1.886575
 C    -4.780155    -0.444665     2.263530
 H    -5.531475     0.160843     2.772237
 C    -4.798880    -1.833964     2.396324
Cl    -6.030800    -2.575051     3.357753
 C    -1.082862     1.800924     1.754234
 H    -1.260368     0.947129     2.410521
 C    -0.927042     2.753774    -0.455690
 H    -1.009066     2.650878    -1.540151
 C    -0.735030     3.026509     2.312883
 H    -0.640590     3.141883     3.393323
 C    -0.575672     3.985354     0.090081
 H    -0.368386     4.844398    -0.549849
 C    -0.500510     4.115894     1.475949
Cl    -0.096426     5.650941     2.167872
 C     2.306753     0.891040     1.966522
 C     2.406984     2.217591     1.550421
 H     1.757699     2.564910     0.745133
 C     3.123347     0.408215     2.990329
 H     3.032190    -0.628742     3.313135
 C     3.350595     3.079629     2.117507
 C     3.490569     4.480704     1.599310
 H     3.767561     4.474992     0.532137
 H     2.543517     5.034456     1.686425
 H     4.263096     5.038066     2.146998
 C     4.048711     1.268545     3.575888
 H     4.691483     0.900822     4.379327
 C     4.170024     2.587167     3.138871
 H     4.913636     3.245118     3.595816
 C     2.732541    -2.684859     1.482770
 H     1.895758    -2.454540     2.146861
 C     3.965686    -2.260958    -0.545684
 H     4.112365    -1.700584    -1.472081
 C     3.588357    -3.734683     1.794319
 H     3.446638    -4.325042     2.700906
 C     4.826719    -3.313761    -0.247472
 H     5.644030    -3.575906    -0.920986
 C     4.637016    -4.040471     0.926121
Cl     5.706972    -5.345248     1.306773
 C     3.877693     0.982455    -0.728634
 H     4.420466     0.491566     0.082241
 C     1.911045     1.208406    -2.111974
 H     0.911575     0.858223    -2.391313
 C     4.477964     2.040547    -1.401032
 H     5.479927     2.378474    -1.132534
 C     2.497647     2.272585    -2.790166
 H     1.975130     2.780844    -3.601912
 C     3.774851     2.689712    -2.416897
Cl     4.500026     4.040154    -3.218520
