  90
scf done:    -2897.902385
 C     1.566812    -2.884470    -1.631478
 H     1.423380    -3.400161    -2.594239
 H     2.490859    -2.299319    -1.754011
 C     1.739831    -3.916405    -0.519461
 H     0.853871    -4.565453    -0.422443
 H     2.606210    -4.579270    -0.703207
 H     1.903096    -3.446519     0.464474
Ir    -0.116349    -1.642583    -1.153993
 C     2.781014    -0.777506     0.782414
 O     1.858312     0.956049    -1.202914
 O     0.548284     0.719861     1.005789
 C    -2.094096     1.264649    -0.804213
 O    -3.346022    -1.163919    -0.836909
 O    -2.106142    -0.440715     1.272733
 P    -1.900710    -0.493402    -0.372463
 P     1.332788    -0.179259    -0.143895
 C    -1.086842    -2.546964    -2.483496
 O    -1.638841    -3.012663    -3.375479
 C     2.560899    -1.145939     2.113181
 H     1.573623    -0.990472     2.552592
 C     4.031618    -1.049214     0.192113
 O     4.161299    -0.748380    -1.108474
 C     5.424067    -0.790360    -1.715524
 H     6.142083    -0.142145    -1.185366
 H     5.287238    -0.409061    -2.734467
 H     5.818158    -1.819643    -1.763229
 C     3.571388    -1.725285     2.875330
 H     3.376315    -2.008544     3.911207
 C     5.054439    -1.609063     0.964830
 H     6.032097    -1.803282     0.523966
 C     4.818848    -1.942332     2.297208
 H     5.624888    -2.391015     2.882931
 C     2.978787     1.737112    -1.271116
 C     3.385514     2.097878    -2.556511
 H     2.809904     1.724882    -3.405414
 C     3.682770     2.188899    -0.154950
 H     3.361458     1.924304     0.851907
 C     4.505434     2.906126    -2.726642
 H     4.817672     3.187074    -3.735506
 C     4.808353     2.990003    -0.340054
 H     5.356396     3.341172     0.537486
 C     5.227262     3.352444    -1.618990
 H     6.106769     3.986018    -1.752173
 C     0.874307     1.951592     1.506199
 C     0.600139     3.093417     0.752821
 H     0.153032     2.986256    -0.235618
 C     1.432324     2.054919     2.780919
 H     1.620773     1.150201     3.358705
 C     0.913534     4.345185     1.273907
 H     0.706175     5.237563     0.678893
 C     1.739433     3.315334     3.291335
 H     2.180162     3.398072     4.287778
 C     1.488385     4.462396     2.539409
 H     1.735439     5.447218     2.941987
 C    -1.378038     1.651368    -1.941760
 H    -0.766383     0.892358    -2.441707
 C    -2.871425     2.226685    -0.120669
 O    -3.553081     1.819244     0.954253
 C    -4.447034     2.691568     1.585856
 H    -3.926570     3.553081     2.039590
 H    -4.935934     2.108883     2.375957
 H    -5.218252     3.054625     0.885567
 C    -1.415312     2.961035    -2.416334
 H    -0.844897     3.240836    -3.303700
 C    -2.900964     3.545082    -0.594740
 H    -3.489500     4.300641    -0.074688
 C    -2.178659     3.902355    -1.731831
 H    -2.216510     4.937536    -2.080631
 C    -4.567776    -0.615455    -0.546848
 C    -5.164554     0.248323    -1.463929
 H    -4.639575     0.479894    -2.392242
 C    -5.208979    -0.941974     0.647744
 H    -4.714702    -1.619312     1.345460
 C    -6.410803     0.800159    -1.173153
 H    -6.880181     1.477844    -1.890484
 C    -6.455847    -0.389034     0.926148
 H    -6.962343    -0.645566     1.859978
 C    -7.058687     0.486445     0.021430
 H    -8.037832     0.916826     0.243970
 C    -1.421242    -1.191443     2.176342
 C    -1.144450    -0.592346     3.407771
 H    -1.465091     0.438952     3.563901
 C    -1.017367    -2.505897     1.926818
 H    -1.237084    -2.969207     0.960760
 C    -0.463158    -1.308773     4.387977
 H    -0.251857    -0.835216     5.350150
 C    -0.322281    -3.207829     2.911911
 H     0.002718    -4.229854     2.704355
 C    -0.044711    -2.619176     4.144330
 H     0.494017    -3.178238     4.912549
