  70
scf done:    -1987.949940
 C    -0.819159    -2.206363     2.029588
 H    -1.641475    -2.857882     2.367289
 H    -0.050856    -2.893313     1.637621
 C    -0.238685    -1.447126     3.218576
 H    -0.979055    -0.771545     3.677768
 H     0.112475    -2.130950     4.013767
 H     0.625505    -0.835966     2.916223
Ir    -1.506020    -0.780405     0.569251
 O     1.776525    -1.212462     0.570631
 C     0.526088    -2.936033    -1.176155
 C     1.092191    -0.207169    -1.929953
 O    -0.996485     2.120189    -1.181961
 C    -2.778060     0.684660    -2.443716
 C    -3.417251     2.068234     0.018068
 P    -2.155314     0.969970    -0.743340
 P     0.505920    -1.228337    -0.514456
 C    -3.220109    -1.044223     1.250034
 O    -4.287919    -1.306589     1.595510
 C     3.097379    -1.112289     0.238179
 C     3.675004     0.153144     0.136100
 H     3.052942     1.031631     0.321775
 C     3.862121    -2.261699     0.037027
 H     3.397315    -3.242761     0.149141
 C     5.023271     0.295481    -0.203320
 C     5.640895     1.660931    -0.290882
 H     6.081809     1.952318     0.677128
 H     6.446078     1.692593    -1.039202
 H     4.891555     2.422244    -0.550587
 C     5.206576    -2.123988    -0.301516
 H     5.814655    -3.016499    -0.468231
 C     5.780660    -0.860658    -0.431350
 H     6.834945    -0.768983    -0.705214
 H     0.407529    -3.591486    -0.300007
 C    -0.600690    -3.167484    -2.173664
 H    -0.497178    -2.533695    -3.068760
 H    -1.572003    -2.936642    -1.708723
 H     1.515742    -3.141098    -1.614164
 H    -0.615653    -4.214769    -2.510500
 H     1.465308     0.726714    -1.482384
 C     2.109993    -0.792984    -2.897767
 H     1.719463    -1.677485    -3.422434
 H     3.044813    -1.080155    -2.397000
 H     0.172726     0.084148    -2.460717
 H     2.363811    -0.045167    -3.664684
 C     0.027885     2.548760    -0.399151
 C     0.223031     2.137000     0.922147
 H    -0.474850     1.419777     1.375819
 C     0.927592     3.440322    -0.994455
 H     0.754312     3.749128    -2.026771
 C     1.323537     2.594813     1.657306
 C     1.565353     2.079987     3.045204
 H     0.624132     1.836410     3.557092
 H     2.158827     1.151045     3.008146
 H     2.121451     2.806209     3.654987
 C     2.010989     3.909040    -0.259580
 H     2.709115     4.612089    -0.721112
 C     2.212589     3.492935     1.056763
 H     3.070453     3.864406     1.622899
 H    -1.964773     0.168037    -2.978083
 C    -4.040464    -0.164081    -2.448073
 H    -4.884443     0.354477    -1.967372
 H    -3.879846    -1.109949    -1.907755
 H    -2.923711     1.655999    -2.942075
 H    -4.346373    -0.405750    -3.476700
 H    -2.992060     2.342865     0.997768
 C    -3.815285     3.299639    -0.776890
 H    -4.342586     3.035379    -1.706165
 H    -2.932839     3.896947    -1.049376
 H    -4.282729     1.423448     0.246020
 H    -4.489754     3.940727    -0.189322
