  88
scf done:    -2696.067181
 C    -1.760972    -0.779623    -2.935446
 H    -2.196686    -1.778212    -3.111010
 H    -2.612510    -0.140525    -2.647948
 C    -1.151486    -0.255814    -4.231211
 H    -0.379327    -0.935726    -4.627006
 H    -1.912136    -0.130117    -5.024182
 H    -0.669295     0.727599    -4.095812
Ir    -0.280157    -0.783052    -1.402194
 C    -1.651312    -0.604942     1.833703
 C    -1.831048     1.886849     0.394287
 C    -3.579536    -0.308963    -0.213143
 C     2.421942    -1.773864     0.670664
 C     2.961963     0.379239    -1.222478
 C     1.571134     0.969628     1.154262
 P     1.636987    -0.317258    -0.150478
 P    -1.817651     0.076453     0.127935
 C     0.541201    -2.203112    -2.267242
 O     0.958623    -3.207191    -2.660188
 H    -2.534876    -0.282685     2.409918
 H    -0.769591    -0.117201     2.273607
 C    -1.521806    -2.119796     1.867038
 H    -2.361991    -2.571256     1.314671
 H    -0.613762    -2.414205     1.311607
 C    -1.503090    -2.723574     3.274065
 H    -2.463641    -2.461225     3.756806
 C    -1.421983    -4.243270     3.187495
 H    -2.244433    -4.656668     2.583659
 H    -1.468090    -4.707292     4.184742
 H    -0.475266    -4.557240     2.716526
 C    -0.381957    -2.171305     4.147186
 H    -0.398648    -2.630939     5.147312
 H    -0.457561    -1.082071     4.284574
 H     0.604344    -2.390329     3.705041
 C    -1.578339     2.694123    -0.723910
 H    -1.390849     2.220041    -1.692345
 C    -2.043268     2.497892     1.635015
 H    -2.231142     1.895070     2.525105
 C    -1.542656     4.079769    -0.612285
 H    -1.344659     4.720935    -1.473086
 C    -1.998677     3.883898     1.764833
 H    -2.137354     4.374168     2.730006
 C    -1.748529     4.655276     0.637137
 F    -1.686280     5.978682     0.758132
 C    -4.615998     0.593047     0.048990
 H    -4.389036     1.596510     0.416197
 C    -3.895847    -1.583385    -0.703289
 H    -3.085802    -2.274732    -0.949715
 C    -5.944696     0.231731    -0.162752
 H    -6.764585     0.926061     0.029636
 C    -5.218450    -1.960259    -0.909014
 H    -5.479665    -2.947528    -1.293948
 C    -6.227512    -1.044008    -0.634210
 F    -7.495082    -1.394703    -0.836498
 H     2.410793    -2.554377    -0.108352
 H     1.677952    -2.102697     1.414593
 C     3.811015    -1.642472     1.272725
 H     4.516041    -1.344578     0.480622
 H     3.831709    -0.829605     2.020793
 C     4.334327    -2.925678     1.927167
 H     4.315874    -3.720076     1.157650
 C     5.780697    -2.734011     2.369014
 H     6.422475    -2.433294     1.526405
 H     6.196852    -3.659256     2.796352
 H     5.853775    -1.949110     3.140484
 C     3.466471    -3.384932     3.093816
 H     3.889491    -4.281310     3.572538
 H     2.443149    -3.639299     2.779149
 H     3.397688    -2.599373     3.865979
 C     4.090098     1.010897    -0.675926
 H     4.183142     1.121594     0.406427
 C     2.848831     0.298017    -2.615445
 H     1.955706    -0.159949    -3.048446
 C     5.090325     1.524490    -1.493850
 H     5.971981     2.018088    -1.081106
 C     3.842245     0.808690    -3.447700
 H     3.761480     0.752046    -4.534605
 C     4.953791     1.410896    -2.873890
 F     5.906803     1.903750    -3.659600
 C     1.533871     0.668894     2.519841
 H     1.629509    -0.362926     2.861839
 C     1.452715     2.311911     0.761188
 H     1.482569     2.570311    -0.299893
 C     1.361566     1.672709     3.472947
 H     1.324652     1.446203     4.540118
 C     1.297684     3.324436     1.699131
 H     1.200540     4.369776     1.402122
 C     1.239631     2.988078     3.047029
 F     1.055693     3.951298     3.947645
