 104
scf done:    -2757.234853
 C    -1.206880    -3.141235    -1.297418
 H    -1.547984    -3.979263    -0.668272
 H    -2.128528    -2.754397    -1.765309
 C    -0.260380    -3.646022    -2.382024
 H     0.635185    -4.123520    -1.952237
 H    -0.743263    -4.390852    -3.041604
 H     0.099228    -2.829007    -3.030482
Ir    -0.175098    -1.669506    -0.115729
 C    -1.945527     0.278668    -2.552231
 O    -3.325292    -0.810153    -0.581725
 O    -1.791051     1.197905     0.023202
 C     0.716022     1.014882     2.138565
 O     2.660561    -0.528587     1.268384
 O     1.525142     0.997852    -0.501796
 P     1.154753    -0.057186     0.736932
 P    -1.791069    -0.235442    -0.819558
 C     0.570224    -3.099360     0.861668
 O     0.886311    -3.961654     1.550900
 H    -2.945438     0.692145    -2.752090
 H    -1.863355    -0.666477    -3.113486
 C    -0.826371     1.253296    -2.911565
 H    -1.120712     2.260196    -2.572206
 H     0.087667     1.001847    -2.345362
 C    -0.468781     1.304570    -4.397874
 H    -1.402043     1.459640    -4.971811
 C     0.454347     2.488630    -4.663225
 H    -0.020125     3.440521    -4.377909
 H     0.731398     2.554062    -5.726718
 H     1.384702     2.395028    -4.078481
 C     0.171200     0.002810    -4.869174
 H     0.419277     0.046484    -5.940736
 H    -0.486186    -0.867499    -4.721450
 H     1.104900    -0.191393    -4.314881
 C    -3.643282    -1.594550     0.503426
 C    -3.117204    -1.334724     1.765698
 H    -2.445001    -0.485960     1.905320
 C    -4.519112    -2.656561     0.295454
 H    -4.909648    -2.837194    -0.707141
 C    -3.437322    -2.161439     2.847767
 C    -2.808217    -1.910784     4.186875
 H    -2.852876    -0.845199     4.459346
 H    -3.300002    -2.489061     4.981418
 H    -1.743840    -2.198866     4.171912
 C    -4.856340    -3.467220     1.374790
 H    -5.541450    -4.305156     1.225883
 C    -4.315923    -3.228510     2.638237
 H    -4.578304    -3.881589     3.474348
 C    -2.606532     2.287159    -0.139236
 C    -3.926904     2.194356    -0.576261
 H    -4.353515     1.215225    -0.797464
 C    -2.058915     3.527387     0.201631
 H    -1.031382     3.576680     0.563741
 C    -4.711702     3.348357    -0.705023
 C    -6.128815     3.232169    -1.186819
 H    -6.165752     2.862238    -2.224053
 H    -6.700265     2.520615    -0.570833
 H    -6.645926     4.201047    -1.156533
 C    -2.839854     4.670561     0.081824
 H    -2.415954     5.641302     0.349830
 C    -4.155013     4.586655    -0.375087
 H    -4.759662     5.492104    -0.467542
 H     0.268369     0.317804     2.869070
 H    -0.124507     1.606406     1.743205
 C     1.787920     1.871659     2.798459
 H     2.607237     1.216503     3.133040
 H     2.231160     2.562718     2.064491
 C     1.273820     2.693888     3.983082
 H     0.813533     1.995044     4.707509
 C     2.440648     3.389379     4.675012
 H     3.197013     2.664747     5.014440
 H     2.105217     3.964424     5.551978
 H     2.938315     4.091285     3.985004
 C     0.212345     3.705464     3.562718
 H    -0.118619     4.313214     4.418942
 H    -0.682374     3.224413     3.139741
 H     0.615637     4.393939     2.800325
 C     3.371292    -1.520261     0.645743
 C     3.301107    -1.722917    -0.732447
 H     2.670769    -1.072752    -1.343096
 C     4.178980    -2.329520     1.444523
 H     4.208649    -2.151764     2.520638
 C     4.020335    -2.763031    -1.333382
 C     3.891743    -2.995741    -2.810405
 H     2.869937    -3.321904    -3.063415
 H     4.085702    -2.072873    -3.378915
 H     4.590840    -3.767297    -3.161432
 C     4.907117    -3.351873     0.846593
 H     5.539001    -3.994866     1.463847
 C     4.826142    -3.573085    -0.528911
 H     5.394557    -4.388241    -0.983535
 C     2.298290     2.126066    -0.444867
 C     3.669312     2.048910    -0.208474
 H     4.129669     1.072596    -0.049633
 C     1.682115     3.355514    -0.682162
 H     0.613594     3.379844    -0.897931
 C     4.443109     3.213781    -0.156410
 C     5.911761     3.124381     0.140865
 H     6.082456     2.853568     1.195584
 H     6.396916     2.350053    -0.472388
 H     6.421093     4.079924    -0.046011
 C     2.450892     4.514426    -0.639680
 H     1.978405     5.482629    -0.822435
 C     3.817275     4.447353    -0.368851
 H     4.410697     5.364445    -0.333821
