 118
scf done:    -3512.731727
 C     1.810246    -2.890747     0.697497
 H     1.619418    -3.904099     0.300446
 H     2.704656    -2.546165     0.151960
 C     2.145699    -2.991960     2.180878
 H     1.315924    -3.431850     2.758159
 H     3.038625    -3.618956     2.368369
 H     2.352793    -2.004271     2.620642
Ir     0.097402    -1.649754     0.269284
 O     2.346750     0.471508     1.000694
 C     3.053794    -0.544738    -1.528374
 C     1.243851     1.564835    -1.270953
 O    -2.344841     0.119015    -1.355016
 C    -3.235639    -0.865961     1.002518
 C    -1.337116     1.410176     0.911566
 P    -1.711457    -0.238978     0.162864
 P     1.679510    -0.013809    -0.435872
 C    -0.862290    -3.038584     0.999604
 O    -1.411939    -3.942190     1.466582
 C     3.578710     0.481854     1.552852
 C     4.513792    -0.532943     1.350405
 H     4.260383    -1.374616     0.705612
 C     3.869210     1.536692     2.425580
 H     3.103167     2.295041     2.587752
 C     5.767050    -0.483105     1.970857
 C     6.755172    -1.586268     1.723251
 H     6.376402    -2.546168     2.109612
 H     6.932843    -1.723058     0.644769
 H     7.720180    -1.383291     2.208511
 C     5.107961     1.580304     3.054453
 H     5.337254     2.402678     3.737375
 C     6.061153     0.587371     2.821215
 H     7.034579     0.634308     3.315944
 C     4.225585     0.231149    -1.630007
 O     4.196694     1.413621    -1.000038
 C     5.385906     2.119841    -0.779694
 H     5.120138     2.976382    -0.149074
 H     6.122489     1.500206    -0.241113
 H     5.824492     2.485801    -1.723913
 C     2.973502    -1.742504    -2.268131
 O     1.799246    -2.378290    -2.259448
 C     1.711749    -3.713296    -2.669433
 H     0.707420    -4.050009    -2.382570
 H     2.458423    -4.343205    -2.158038
 H     1.835067    -3.814493    -3.762310
 C     4.086874    -2.212190    -2.979937
 H     4.035088    -3.150447    -3.530968
 C     5.339002    -0.234447    -2.338246
 H     6.254390     0.353642    -2.387935
 C     5.254827    -1.459158    -2.993255
 H     6.120905    -1.827962    -3.548486
 C     1.539581     2.887190    -0.898238
 O     2.175013     3.096296     0.266772
 C     2.532254     4.399292     0.619550
 H     3.056378     4.329260     1.581199
 H     3.211717     4.854139    -0.123320
 H     1.649541     5.049034     0.743650
 C     0.576542     1.345411    -2.489800
 O     0.392363     0.049049    -2.772723
 C    -0.399686    -0.345461    -3.855606
 H    -0.512907    -1.432427    -3.765109
 H     0.087196    -0.104187    -4.816856
 H    -1.392891     0.125468    -3.808286
 C     0.197999     2.393087    -3.332202
 H    -0.320009     2.199673    -4.270470
 C     1.174006     3.944731    -1.746714
 H     1.403568     4.973289    -1.473640
 C     0.517515     3.687695    -2.945861
 H     0.246450     4.524710    -3.594390
 C    -3.639529     0.403962    -1.635748
 C    -4.454088     1.165466    -0.795276
 H    -4.049712     1.561723     0.137000
 C    -4.162198    -0.107163    -2.828534
 H    -3.521741    -0.726055    -3.458631
 C    -5.788866     1.417635    -1.125595
 C    -6.650973     2.193355    -0.171071
 H    -6.151852     3.116660     0.162249
 H    -7.613950     2.468934    -0.623924
 H    -6.861734     1.597236     0.732485
 C    -5.483024     0.160684    -3.171779
 H    -5.888428    -0.236379    -4.106074
 C    -6.297105     0.916129    -2.327735
 H    -7.337581     1.111410    -2.599920
 C    -3.888716    -0.300226     2.115099
 O    -3.503671     0.930954     2.491833
 C    -3.948538     1.475946     3.698351
 H    -3.398882     2.417639     3.827883
 H    -5.031947     1.690575     3.681317
 H    -3.728450     0.810202     4.550609
 C    -3.752533    -2.074908     0.490260
 O    -3.173926    -2.514933    -0.638548
 C    -3.493878    -3.779322    -1.144643
 H    -2.836280    -3.937785    -2.008691
 H    -4.544801    -3.828310    -1.478558
 H    -3.303234    -4.568817    -0.398753
 C    -4.802722    -2.750703     1.119633
 H    -5.173691    -3.694877     0.724266
 C    -4.934535    -0.975455     2.757486
 H    -5.420862    -0.539331     3.629034
 C    -5.371073    -2.196878     2.258815
 H    -6.188186    -2.720344     2.760969
 C    -0.760343     1.358154     2.197478
 O    -0.734345     0.143784     2.764193
 C     0.185351    -0.136475     3.785472
 H     0.191457    -1.226748     3.901699
 H     1.197877     0.197199     3.508403
 H    -0.113700     0.330865     4.740620
 C    -1.493945     2.674893     0.315202
 O    -2.021447     2.726644    -0.918565
 C    -2.508391     3.935991    -1.421030
 H    -2.999433     3.696308    -2.372731
 H    -1.699164     4.660169    -1.610983
 H    -3.249740     4.387274    -0.737965
 C    -1.099125     3.837903     0.995495
 H    -1.232565     4.812924     0.528988
 C    -0.315223     2.507285     2.856294
 H     0.139492     2.437367     3.844065
 C    -0.507345     3.742197     2.248113
 H    -0.189199     4.652503     2.763119
