  82
scf done:    -2145.056105
 C    -2.044812    -2.209752    -0.893922
 H    -2.122434    -3.288594    -0.683907
 H    -2.946260    -1.769738    -0.437264
 C    -2.065947    -1.974690    -2.399324
 H    -1.210535    -2.458439    -2.898365
 H    -2.983079    -2.380789    -2.866261
 H    -2.030118    -0.900862    -2.640067
Ir    -0.207730    -1.376946    -0.144542
 O    -2.613562     0.804694    -0.869718
 C    -2.654610    -0.013096     1.806032
 C    -0.966728     2.171686     0.782843
 O     2.221744     0.988676    -0.215006
 C     2.876315    -0.873041     1.714336
 C     3.071167    -1.388905    -1.208137
 P     1.969107    -0.657656     0.094685
 P    -1.545649     0.460252     0.380182
 C     0.256499    -3.147311     0.145222
 O     0.407722    -4.246079     0.468043
 C    -3.867358     1.332618    -0.776223
 C    -4.962635     0.471118    -0.722579
 H    -4.778255    -0.605631    -0.750908
 C    -4.061262     2.716963    -0.788484
 H    -3.200953     3.383303    -0.861866
 C    -6.266513     0.970851    -0.640813
 C    -7.435402     0.029728    -0.601303
 H    -7.252094    -0.810803     0.084668
 H    -8.354083     0.540716    -0.280898
 H    -7.624214    -0.401881    -1.598001
 C    -5.356822     3.219280    -0.706433
 H    -5.516126     4.300363    -0.708131
 C    -6.449861     2.358069    -0.622766
 H    -7.461061     2.766900    -0.553166
 H    -3.378585    -0.674292     1.298693
 C    -1.909660    -0.862233     2.833657
 H    -2.624537    -1.271538     3.565037
 H    -1.380281    -1.692040     2.342259
 H    -1.165758    -0.272176     3.390804
 C    -3.426318     1.124053     2.468113
 H    -4.005872     1.725107     1.754956
 H    -4.137961     0.700684     3.194988
 H    -2.759715     1.798527     3.026835
 H    -1.883591     2.723053     1.053326
 C    -0.031366     2.155438     1.984801
 H     0.376331     3.163695     2.160315
 H    -0.537576     1.834463     2.906155
 H     0.814727     1.478493     1.804850
 C    -0.342249     2.826053    -0.444466
 H    -1.032742     2.819850    -1.299479
 H    -0.079254     3.872402    -0.220074
 H     0.573755     2.298083    -0.740017
 C     3.380465     1.700311    -0.094242
 C     4.285450     1.765061    -1.155471
 H     4.059598     1.225787    -2.076813
 C     3.625519     2.425861     1.075229
 H     2.898615     2.397344     1.887209
 C     5.462798     2.514220    -1.053245
 C     6.413389     2.591422    -2.212719
 H     6.488051     1.628288    -2.738687
 H     6.072771     3.338474    -2.948815
 H     7.421624     2.884921    -1.888099
 C     4.795317     3.171284     1.183077
 H     4.994136     3.730995     2.100247
 C     5.713207     3.208870     0.135123
 H     6.631246     3.793386     0.235110
 H     2.589433     0.055760     2.239582
 C     2.304929    -2.039403     2.515183
 H     2.753970    -2.057505     3.520945
 H     1.213806    -1.954911     2.618716
 H     2.516871    -3.009662     2.040948
 C     4.399827    -0.924493     1.638117
 H     4.830403    -0.082831     1.079375
 H     4.819497    -0.890975     2.656504
 H     4.750085    -1.858381     1.174840
 H     4.044129    -0.882843    -1.087646
 C     3.282825    -2.890643    -1.052917
 H     4.047244    -3.230506    -1.769734
 H     3.621399    -3.179857    -0.048063
 H     2.360183    -3.446886    -1.267373
 C     2.490184    -1.059963    -2.580502
 H     2.312579     0.017515    -2.709235
 H     3.171135    -1.397379    -3.378479
 H     1.521522    -1.568125    -2.713978
