  90
scf done:    -2525.363086
 C    -2.412361    -2.807228     0.275522
 H    -2.868406    -3.107318     1.233988
 H    -3.251594    -2.384934    -0.306550
 C    -1.885286    -4.048353    -0.436460
 H    -1.120057    -4.567602     0.162966
 H    -2.689358    -4.778477    -0.643871
 H    -1.417245    -3.811323    -1.406619
Ir    -0.853716    -1.367962     0.586279
 C    -2.989352     0.157300    -1.847285
 C    -3.963347     0.100551     0.859152
 C    -2.057551     2.017212     0.227827
 C     1.939947     0.165330     2.162457
 C     2.419824    -1.027522    -0.414698
 C     1.201082     1.536783    -0.316361
 P     1.112868    -0.104656     0.500574
 P    -2.394885     0.244062    -0.091876
 C    -0.131705    -2.511259     1.849257
 O     0.229437    -3.114008     2.768828
 H    -3.603557    -0.758071    -1.864085
 H    -3.660601     0.999479    -2.068151
 C    -1.892095     0.061715    -2.870123
 C    -1.772986     1.012356    -3.886476
 H    -2.482181     1.843107    -3.940761
 C    -0.984865    -1.005832    -2.839769
 H    -1.064562    -1.749182    -2.037308
 C    -0.765848     0.897328    -4.844318
 H    -0.684178     1.644411    -5.637861
 C     0.028228    -1.140049    -3.792516
 C     1.007458    -2.273860    -3.727667
 H     1.171619    -2.717734    -4.721181
 H     1.985003    -1.927493    -3.354764
 H     0.664072    -3.063045    -3.045591
 C     0.127304    -0.167886    -4.798518
 H     0.913044    -0.254067    -5.554193
 C    -3.964417    -0.589412     2.074969
 C    -5.135098     0.736826     0.431980
 C    -6.291045    -0.032588     2.408102
 C    -6.294961     0.663165     1.199040
 C    -5.123093    -0.653032     2.846845
 H    -3.040524    -1.079021     2.395864
 H    -5.112481    -1.196579     3.794608
 H    -7.201286    -0.087666     3.010181
 H    -7.206065     1.157631     0.853583
 H    -5.148236     1.307540    -0.499510
 C    -2.037962     2.998915    -0.764160
 C    -1.885129     2.394125     1.567305
 C    -1.738514     4.713347     0.914703
 C    -1.731912     3.733558     1.908570
 C    -1.878394     4.341192    -0.419176
 H    -2.132915     2.724744    -1.815039
 H    -1.859424     5.099536    -1.205312
 H    -1.624787     5.766824     1.181484
 H    -1.614787     4.016017     2.957707
 H    -1.891463     1.627179     2.347177
 H     1.452659     1.039746     2.618921
 H     1.630226    -0.704960     2.757487
 C     3.432854     0.273335     2.134591
 C     4.205973    -0.890391     2.239283
 H     3.710777    -1.852153     2.395205
 C     4.086839     1.491371     1.926231
 H     3.499949     2.408535     1.841544
 C     5.589196    -0.830204     2.114566
 H     6.180198    -1.746500     2.184422
 C     5.478074     1.570613     1.799075
 C     6.146536     2.899543     1.593161
 H     5.539364     3.559697     0.955831
 H     6.295077     3.420602     2.553882
 H     7.135383     2.786042     1.126072
 C     6.222686     0.390370     1.888089
 H     7.310339     0.429360     1.781588
 C     2.348293    -2.422903    -0.490042
 C     3.539604    -0.377504    -0.952798
 C     4.490131    -2.501616    -1.603381
 C     4.564184    -1.109468    -1.545213
 C     3.379968    -3.156091    -1.075005
 H     1.466581    -2.932244    -0.094688
 H     3.307775    -4.245202    -1.124556
 H     5.298678    -3.075121    -2.063409
 H     5.433595    -0.587778    -1.952026
 H     3.619439     0.709202    -0.895759
 C     1.281018     2.739223     0.393460
 C     1.150824     1.588498    -1.716362
 C     1.346280     3.995496    -1.669873
 C     1.225642     2.806261    -2.386364
 C     1.360739     3.957657    -0.277653
 H     1.274616     2.741006     1.483711
 H     1.426412     4.883988     0.297397
 H     1.414467     4.951501    -2.194648
 H     1.191224     2.816037    -3.477992
 H     1.063500     0.667130    -2.294153
