  86
scf done:    -2993.956179
 C    -0.307029     0.634124    -3.509857
 H     0.218389     0.285773    -4.412808
 H    -1.332914     0.241990    -3.579279
 C    -0.332999     2.158579    -3.499193
 H     0.679601     2.589834    -3.436668
 H    -0.800114     2.565714    -4.414741
 H    -0.914812     2.550840    -2.649132
Ir     0.638169    -0.051157    -1.719209
 O    -2.597191     0.816022    -1.570786
 C    -2.038437    -1.409978    -0.028777
 C    -1.529380     1.284424     0.860440
 O     1.562890     0.532290     1.527755
 C     1.495208    -2.043385     1.066712
 C     3.635027    -0.412748     0.115680
 P     1.813836    -0.473567     0.206079
 P    -1.389538     0.191477    -0.595691
 C     1.856232    -0.924568    -2.820902
 O     2.502002    -1.596993    -3.498099
 C    -3.933497     0.647287    -1.321623
 C    -4.618233     1.547305    -0.506420
 H    -4.075214     2.386169    -0.068318
 C    -4.597214    -0.433123    -1.903326
 H    -4.036120    -1.124407    -2.534189
 C    -5.981953     1.372366    -0.244078
 C    -6.719060     2.359945     0.613503
 H    -6.087305     2.731021     1.433954
 H    -7.031629     3.236216     0.021465
 H    -7.626065     1.917667     1.049471
 C    -5.952916    -0.609836    -1.646356
 H    -6.480339    -1.457012    -2.091099
 C    -6.638684     0.278287    -0.818792
 H    -7.702131     0.123761    -0.618614
 C    -3.165992    -1.519599     0.801022
 H    -3.688834    -0.625108     1.145110
 C    -1.410393    -2.576544    -0.483155
 H    -0.543126    -2.473650    -1.143217
 C    -3.637404    -2.767870     1.189631
 H    -4.513280    -2.873450     1.831758
 C    -1.871798    -3.830488    -0.099197
 H    -1.384855    -4.747588    -0.433702
 C    -2.977645    -3.907005     0.738535
 F    -3.422532    -5.100183     1.116653
 C    -1.501726     2.667246     0.626210
 H    -1.462355     3.041696    -0.399802
 C    -1.548722     0.822743     2.179704
 H    -1.549313    -0.248763     2.384375
 C    -1.519578     3.571967     1.679393
 H    -1.483865     4.648995     1.511930
 C    -1.557279     1.718188     3.246132
 H    -1.565166     1.374897     4.282029
 C    -1.538755     3.080611     2.979680
 F    -1.519463     3.939417     3.994645
 C     1.673167     1.890721     1.474201
 C     1.713756     2.610615     0.280286
 H     1.650383     2.075728    -0.677331
 C     1.725747     2.558901     2.700436
 H     1.699098     1.974168     3.621066
 C     1.787206     4.008397     0.292481
 C     1.808937     4.759122    -1.007151
 H     0.945736     4.489226    -1.635759
 H     1.792113     5.846019    -0.847038
 H     2.712567     4.516945    -1.589035
 C     1.799387     3.945985     2.715231
 H     1.828795     4.472138     3.672243
 C     1.827341     4.670112     1.522260
 H     1.883831     5.761251     1.547117
 C     1.818505    -3.229279     0.393459
 H     2.326712    -3.187095    -0.574524
 C     0.835640    -2.110282     2.296702
 H     0.598587    -1.186800     2.826513
 C     1.490292    -4.464438     0.938665
 H     1.738234    -5.399271     0.432812
 C     0.486494    -3.343284     2.844160
 H    -0.036595    -3.418838     3.799110
 C     0.815597    -4.503250     2.155553
 F     0.479731    -5.682402     2.670128
 C     4.263336     0.256157    -0.940097
 H     3.655773     0.682019    -1.742370
 C     4.416044    -0.943440     1.152067
 H     3.934008    -1.459407     1.986106
 C     5.648769     0.383163    -0.977122
 H     6.156647     0.897831    -1.794343
 C     5.800164    -0.826650     1.126097
 H     6.427759    -1.239349     1.917909
 C     6.397379    -0.163282     0.057696
 F     7.720877    -0.051548     0.028789
