 106
scf done:    -2459.266921
 C     0.025101     2.945189    -1.295976
 H    -0.268659     3.168955    -2.336955
 H    -0.825558     3.260218    -0.672828
 C     1.243388     3.786166    -0.924380
 H     2.093140     3.600807    -1.601325
 H     1.033462     4.873267    -0.961367
 H     1.601859     3.559317     0.093967
Ir     0.480518     0.876991    -1.007896
 C    -1.435562     0.658917     2.150501
 C    -2.857742     1.727606    -0.094281
 C    -2.242949    -1.070858    -0.003029
 C     0.637894    -2.722401    -0.918494
 C     3.123063    -1.431342    -1.045708
 C     1.637442    -1.245688     1.465151
 P     1.427194    -1.152713    -0.365720
 P    -1.476893     0.573984     0.310194
 C     1.481462     0.961715    -2.551337
 O     2.006962     0.950237    -3.582773
 C    -1.709017    -0.430931     2.979698
 H    -1.959387    -1.396145     2.536803
 C    -1.076221     1.881558     2.757745
 O    -0.764921     2.881549     1.913153
 C    -0.365919     4.128312     2.415052
 H    -1.166637     4.601674     3.009054
 H    -0.141191     4.752602     1.542220
 H     0.542170     4.041961     3.035623
 C    -1.672885    -0.319527     4.370771
 H    -1.896654    -1.187312     4.994181
 C    -1.048884     2.004710     4.149770
 H    -0.782177     2.953122     4.616170
 C    -1.354957     0.903885     4.949501
 H    -1.331777     1.010133     6.036639
 H    -3.727551     1.468772     0.530410
 H    -2.524706     2.727584     0.217528
 C    -3.195637     1.714982    -1.578338
 H    -2.256918     1.772298    -2.155530
 H    -3.659732     0.750606    -1.851540
 C    -4.119959     2.852498    -1.986826
 H    -3.641017     3.813086    -1.724064
 H    -5.052496     2.807777    -1.394129
 C    -4.460811     2.849519    -3.470285
 H    -3.523299     2.888308    -4.052148
 H    -4.933670     1.885825    -3.731250
 C    -5.370265     3.994830    -3.884567
 H    -5.597115     3.966151    -4.961206
 H    -4.905452     4.970441    -3.669005
 H    -6.328833     3.961541    -3.341544
 H    -2.137034    -1.222604    -1.086837
 H    -1.572044    -1.825111     0.439983
 C    -3.688711    -1.302751     0.414992
 H    -3.859540    -0.978944     1.455394
 H    -4.355488    -0.679082    -0.203470
 C    -4.091226    -2.764256     0.264999
 H    -3.439683    -3.388580     0.904264
 H    -3.884711    -3.094410    -0.769179
 C    -5.548523    -3.037179     0.607819
 H    -5.747336    -2.698192     1.640162
 H    -6.193980    -2.415841    -0.038076
 C    -5.937334    -4.499720     0.464502
 H    -6.995468    -4.667127     0.716545
 H    -5.332149    -5.140326     1.126227
 H    -5.780408    -4.854611    -0.566861
 C    -0.182706    -2.626164    -2.045702
 H    -0.320511    -1.629881    -2.480921
 C     0.846052    -3.994833    -0.348684
 O     1.705699    -4.067262     0.690639
 C     1.936229    -5.300788     1.310797
 H     1.011611    -5.722328     1.742387
 H     2.652446    -5.114033     2.121090
 H     2.371019    -6.036679     0.612168
 C    -0.822914    -3.740169    -2.586227
 H    -1.459610    -3.635768    -3.467012
 C     0.183754    -5.113436    -0.868121
 H     0.321851    -6.097518    -0.419863
 C    -0.647481    -4.979619    -1.980106
 H    -1.153227    -5.864000    -2.375592
 H     3.489483    -2.405305    -0.681372
 H     2.960753    -1.535964    -2.131944
 C     4.122976    -0.314012    -0.776698
 H     3.604491     0.659897    -0.830591
 H     4.509358    -0.398305     0.253329
 C     5.287588    -0.313751    -1.756661
 H     4.888840    -0.186854    -2.779261
 H     5.785292    -1.301089    -1.744727
 C     6.312520     0.776205    -1.477089
 H     5.802412     1.755621    -1.480816
 H     6.707763     0.649589    -0.453185
 C     7.462004     0.793600    -2.471577
 H     8.184647     1.592587    -2.245854
 H     7.096754     0.955543    -3.498432
 H     8.010330    -0.162491    -2.465873
 H     0.662955    -1.549314     1.883649
 H     2.351816    -2.040958     1.720165
 C     2.056573     0.097615     2.051940
 H     3.049131     0.381015     1.666710
 H     1.370279     0.884321     1.690403
 C     2.087147     0.098812     3.572105
 H     2.754925    -0.706519     3.930708
 H     1.081820    -0.146111     3.955440
 C     2.540549     1.427672     4.158546
 H     3.557292     1.660099     3.795100
 H     1.892616     2.227973     3.760290
 C     2.514642     1.458854     5.677413
 H     2.847121     2.430717     6.073661
 H     3.172139     0.684182     6.104186
 H     1.497793     1.270520     6.057749
