  90
scf done:    -3294.753791
 C     1.010758    -3.408727    -0.474013
 H     1.760916    -4.044496     0.020862
 H     0.045305    -3.722967    -0.044762
 C     1.019371    -3.661957    -1.977122
 H     1.983974    -3.389812    -2.435145
 H     0.839657    -4.727202    -2.210418
 H     0.235531    -3.085057    -2.491598
Ir     1.412290    -1.322869    -0.116262
 O    -1.438151    -1.963857     1.374170
 O    -1.464101     0.336317     0.244670
 O    -1.756484    -1.860977    -1.081253
 O     1.500389     1.799942    -1.349846
 O     1.033252     1.754781     1.154212
 O     3.310686     1.478030     0.259746
 P     1.796681     0.885170    -0.002961
 P    -0.840678    -1.164783     0.068108
 C     3.141682    -1.910801     0.354552
 O     4.123164    -2.350471     0.747958
 C    -0.800091    -1.928491     2.599106
 C    -0.201074    -0.763477     3.068010
 H    -0.213601     0.145040     2.463290
 C    -0.786605    -3.100802     3.348864
 H    -1.255104    -4.000653     2.947555
 C     0.452547    -0.757063     4.305263
 C     1.110315     0.503237     4.785991
 H     1.669965     0.988211     3.972149
 H     0.360035     1.230161     5.138237
 H     1.800620     0.306868     5.618073
 C    -0.152359    -3.090704     4.587604
 H    -0.128070    -4.003923     5.186740
 C     0.467651    -1.933918     5.059911
 H     0.976453    -1.946778     6.027018
 C    -2.763438     0.756652     0.437033
 C    -3.609045     0.187597     1.388950
 H    -3.266668    -0.642095     2.005232
 C    -3.190244     1.827419    -0.345680
 H    -2.497201     2.251251    -1.072701
 C    -4.907929     0.672078     1.523056
 H    -5.598491     0.236204     2.246826
 C    -4.482973     2.319186    -0.202538
 H    -4.843220     3.153464    -0.806948
 C    -5.332209     1.727244     0.725241
 F    -6.575366     2.186207     0.857286
 C    -3.134401    -1.975197    -1.072881
 C    -3.882247    -1.091014    -1.846670
 H    -3.368842    -0.317614    -2.420310
 C    -3.750494    -2.974628    -0.325084
 H    -3.138283    -3.656656     0.264757
 C    -5.269888    -1.183159    -1.846523
 H    -5.885645    -0.494280    -2.426806
 C    -5.139614    -3.070381    -0.325949
 H    -5.656991    -3.836556     0.253918
 C    -5.881531    -2.169117    -1.080106
 F    -7.210016    -2.254628    -1.072346
 C     0.450679     1.628082    -2.215172
 C     0.217252     0.403946    -2.837349
 H     0.872698    -0.444205    -2.606759
 C    -0.339692     2.741914    -2.500096
 H    -0.124010     3.688210    -2.000663
 C    -0.841093     0.260081    -3.743925
 C    -1.104938    -1.070464    -4.383369
 H    -0.186645    -1.491824    -4.819229
 H    -1.464347    -1.792372    -3.633199
 H    -1.860443    -0.995216    -5.177389
 C    -1.378264     2.607264    -3.416324
 H    -1.999861     3.473169    -3.657204
 C    -1.635778     1.377298    -4.024063
 H    -2.455940     1.286369    -4.740954
 C     0.648510     3.073108     1.089786
 C    -0.646408     3.376873     1.506192
 H    -1.297259     2.573626     1.851711
 C     1.506680     4.078673     0.644618
 H     2.519408     3.825099     0.330867
 C    -1.098616     4.692287     1.465218
 H    -2.110258     4.953521     1.780397
 C     1.053282     5.394647     0.596787
 H     1.699486     6.202575     0.249075
 C    -0.243525     5.686109     1.004038
 F    -0.674305     6.946365     0.954533
 C     4.433825     0.888957    -0.262138
 C     4.498469     0.473684    -1.593123
 H     3.646980     0.635885    -2.255522
 C     5.524628     0.715281     0.588287
 H     5.441840     1.043709     1.625485
 C     5.656268    -0.137982    -2.068051
 H     5.733066    -0.479266    -3.101673
 C     6.684909     0.114776     0.113179
 H     7.551081    -0.040287     0.758488
 C     6.733771    -0.312335    -1.209458
 F     7.840642    -0.897295    -1.663249
