  66
scf done:    -2059.743708
 C    -3.973123     0.681505     0.573240
 H    -4.846053     0.039158     0.771092
 H    -3.782233     1.229283     1.511250
 C    -4.332158     1.665408    -0.536197
 H    -4.511083     1.158777    -1.497920
 H    -5.245003     2.243489    -0.299352
 H    -3.531816     2.404318    -0.715683
Ir    -2.219550    -0.478923     0.135080
 C    -0.359442     2.238519    -1.075480
 O    -1.694661     2.618570     1.343531
 O     0.391573     1.137096     1.354410
 C     0.674601    -2.139121     1.165131
 O    -0.402330    -3.103452    -1.025553
 O     0.734174    -0.809275    -1.277434
 P    -0.316652    -1.627780    -0.293377
 P    -0.964620     1.441796     0.479142
 C    -3.359340    -1.955224    -0.006508
 O    -4.065425    -2.860851    -0.054860
 H    -0.281098     1.370561    -1.748283
 H    -1.179869     2.867878    -1.454116
 C     0.951176     2.965585    -1.021739
 C     1.033454     4.359236    -1.079971
 H     0.124213     4.955427    -1.191359
 C     2.135941     2.224324    -0.911599
 H     2.062534     1.136028    -0.862902
 C     2.274666     4.991882    -1.007464
 H     2.330946     6.082216    -1.055632
 C     3.384874     2.842116    -0.841486
 C     4.638950     2.024673    -0.729853
 H     5.195384     2.266606     0.189722
 H     4.413440     0.949506    -0.714966
 H     5.317508     2.218170    -1.575808
 C     3.440140     4.242523    -0.883156
 H     4.408614     4.747677    -0.828821
 C    -1.592241     4.010446     1.163133
 H    -0.554543     4.369797     1.247020
 H    -1.999331     4.320537     0.186638
 H    -2.198907     4.480038     1.949521
 C     1.015821     2.088421     2.193089
 H     1.425925     2.936104     1.621463
 H     0.312782     2.458193     2.955164
 H     1.846011     1.573532     2.695924
 H     0.611587    -1.269946     1.834845
 H     0.086210    -2.952890     1.618171
 C     2.095544    -2.534222     0.917081
 C     2.418389    -3.775532     0.359595
 H     1.618187    -4.479397     0.121092
 C     3.129954    -1.634391     1.204010
 H     2.875953    -0.662593     1.637697
 C     3.746614    -4.091564     0.083462
 H     3.992907    -5.060315    -0.358687
 C     4.468740    -1.942236     0.947126
 C     5.569370    -0.983445     1.300455
 H     6.203327    -0.756609     0.428869
 H     5.169878    -0.034684     1.684394
 H     6.227660    -1.408126     2.075357
 C     4.763565    -3.184438     0.370024
 H     5.803531    -3.446580     0.155607
 C    -1.178431    -3.260398    -2.194955
 H    -1.967118    -2.491963    -2.260210
 H    -0.542624    -3.191273    -3.093407
 H    -1.649618    -4.252993    -2.165406
 C     1.794970    -1.394610    -2.010162
 H     2.754146    -1.263892    -1.486374
 H     1.632685    -2.471350    -2.162493
 H     1.841466    -0.891252    -2.987486
