 118
scf done:    -3512.646983
 C     1.158587    -1.633843    -2.619971
 H     1.019837    -1.227677    -3.635743
 H     2.227000    -1.517957    -2.395133
 C     0.779633    -3.107724    -2.651895
 H    -0.266661    -3.245173    -2.965715
 H     1.405166    -3.691809    -3.356210
 H     0.881955    -3.587490    -1.665288
Ir    -0.068006    -0.604722    -1.200882
 C     2.674425    -1.183226     1.289671
 C     3.315962     0.536894    -0.853769
 C     1.535941     1.454765     1.255371
 C    -2.027412     1.604944     0.996191
 C    -3.437633    -0.103955    -0.967284
 C    -2.476207    -1.236213     1.406864
 P    -1.945271    -0.017690     0.131594
 P     1.813081     0.021405     0.122886
 C    -0.966634    -0.038726    -2.675395
 O    -1.372016     0.497513    -3.627197
 C     2.813164    -1.003537     2.666389
 H     2.490487    -0.065679     3.114440
 C     3.253822    -2.344213     0.739814
 O     3.155117    -2.488111    -0.594339
 C     3.899201    -3.469938    -1.254707
 H     4.976058    -3.376562    -1.030677
 H     3.736621    -3.307284    -2.327031
 H     3.562117    -4.489206    -0.995905
 C     3.430815    -1.946847     3.486824
 H     3.510938    -1.761049     4.560511
 C     3.896660    -3.290381     1.548319
 H     4.335313    -4.182592     1.100968
 C     3.968209    -3.100323     2.925659
 H     4.461650    -3.848559     3.550823
 C     4.598609     0.560120    -0.267658
 O     4.650931     0.566318     1.078229
 C     5.832942     0.213104     1.736295
 H     5.578406     0.115361     2.799377
 H     6.223030    -0.754301     1.376205
 H     6.615915     0.983895     1.624167
 C     3.242784     0.879209    -2.223322
 O     2.038768     1.171797    -2.718226
 C     1.874173     1.370208    -4.093445
 H     0.794077     1.441416    -4.268732
 H     2.266790     0.520984    -4.677194
 H     2.368256     2.299548    -4.430162
 C     4.404467     0.964142    -3.008126
 H     4.331893     1.171087    -4.074628
 C     5.763651     0.639754    -1.042442
 H     6.745349     0.608719    -0.571007
 C     5.650976     0.809544    -2.416113
 H     6.552397     0.869051    -3.031093
 C     2.070271     2.736294     1.022629
 O     2.587089     2.981293    -0.198173
 C     3.638863     3.893740    -0.342488
 H     4.099124     3.685077    -1.318653
 H     3.286058     4.940254    -0.329574
 H     4.396971     3.757405     0.446544
 C     0.808105     1.268835     2.449167
 O     0.198134     0.075380     2.596708
 C    -0.225672    -0.316421     3.873755
 H    -0.589393    -1.346126     3.783348
 H    -1.049389     0.315299     4.242987
 H     0.607247    -0.284154     4.597623
 C     0.774121     2.255362     3.439862
 H     0.232260     2.087005     4.368291
 C     2.033898     3.730903     2.005605
 H     2.475980     4.708121     1.811197
 C     1.403617     3.472722     3.214461
 H     1.368844     4.247020     3.984313
 C    -2.425992     1.788848     2.316819
 H    -2.793231     0.936490     2.885964
 C    -1.548888     2.723377     0.281361
 O    -1.276701     2.512782    -1.013206
 C    -0.515230     3.432422    -1.745027
 H    -1.034744     4.402465    -1.845388
 H    -0.391304     2.990778    -2.740403
 H     0.478561     3.579006    -1.292858
 C    -2.357156     3.039129     2.932244
 H    -2.682655     3.155974     3.968555
 C    -1.432645     3.968614     0.904937
 H    -1.028505     4.820080     0.356773
 C    -1.850528     4.123876     2.225764
 H    -1.766646     5.103577     2.702798
 C    -3.673226    -1.350855    -1.582220
 O    -2.879002    -2.358621    -1.178225
 C    -2.926974    -3.594021    -1.826165
 H    -2.136569    -4.208281    -1.376890
 H    -3.900823    -4.094748    -1.680530
 H    -2.728582    -3.495992    -2.906918
 C    -4.286767     0.962113    -1.308657
 O    -4.128034     2.117264    -0.639410
 C    -4.661444     3.302779    -1.145171
 H    -4.248525     4.112122    -0.527263
 H    -5.763956     3.330441    -1.073236
 H    -4.369243     3.465263    -2.197339
 C    -5.276010     0.809769    -2.290917
 H    -5.913812     1.650012    -2.563562
 C    -4.668204    -1.514533    -2.551734
 H    -4.826592    -2.480301    -3.029720
 C    -5.452725    -0.422931    -2.904780
 H    -6.224553    -0.538590    -3.669520
 C    -1.685987    -2.368250     1.683536
 O    -0.527135    -2.482443     1.020082
 C     0.258442    -3.630767     1.181357
 H     1.059958    -3.550157     0.441110
 H     0.706281    -3.680682     2.188526
 H    -0.322237    -4.549076     0.987241
 C    -3.750920    -1.159458     2.002194
 O    -4.509148    -0.115460     1.630886
 C    -5.815089     0.022928     2.104507
 H    -6.220096     0.918931     1.617709
 H    -5.843837     0.165603     3.199472
 H    -6.440890    -0.846550     1.838856
 C    -4.187048    -2.121163     2.923942
 H    -5.166070    -2.040754     3.394713
 C    -2.113624    -3.333493     2.608737
 H    -1.487812    -4.192854     2.844021
 C    -3.352828    -3.191478     3.222355
 H    -3.682098    -3.943765     3.943490
