 102
scf done:    -3055.057939
 C    -1.693822     0.284606    -2.849395
 H    -2.035264    -0.640376    -3.341643
 H    -2.579305     0.700906    -2.346403
 C    -1.190882     1.282085    -3.885468
 H    -0.349376     0.883656    -4.475064
 H    -1.984654     1.563626    -4.603206
 H    -0.835621     2.216422    -3.418396
Ir    -0.151076    -0.098149    -1.423275
 C    -1.772187     1.714758     1.287583
 O    -3.204820    -0.078373     0.044948
 O    -1.233709    -0.902756     1.494788
 C     2.206910    -1.137750     1.205520
 O     3.015081     0.277318    -0.980601
 O     1.682760     1.379110     0.927263
 P     1.659026     0.036896    -0.066149
 P    -1.604120     0.196638     0.310847
 C     0.714953    -1.172187    -2.687565
 O     1.182232    -1.987424    -3.354892
 C    -1.451735     1.766630     2.643187
 H    -1.131710     0.851826     3.146172
 C    -2.160155     2.891786     0.618258
 O    -2.432115     2.751034    -0.689289
 C    -2.802710     3.870262    -1.449236
 H    -3.757419     4.296478    -1.095834
 H    -2.923995     3.514766    -2.479652
 H    -2.021630     4.647419    -1.422932
 C    -1.539628     2.966974     3.346873
 H    -1.296332     2.998353     4.410590
 C    -2.241702     4.096649     1.319020
 H    -2.533375     5.015578     0.811477
 C    -1.932381     4.122542     2.678319
 H    -1.996549     5.070429     3.218017
 C    -3.728775    -1.041427    -0.779860
 C    -3.102029    -2.264851    -0.993924
 H    -2.143922    -2.477073    -0.519093
 C    -4.955495    -0.723366    -1.379791
 C    -5.578604     0.613559    -1.124900
 H    -5.838044     0.734025    -0.060984
 H    -4.871080     1.423061    -1.363290
 H    -6.489836     0.747292    -1.723489
 C    -3.700757    -3.200831    -1.835168
 H    -3.206571    -4.159043    -2.009829
 C    -5.535029    -1.682784    -2.211328
 H    -6.489780    -1.452790    -2.692192
 C    -4.918010    -2.912178    -2.444988
 H    -5.390748    -3.643242    -3.104531
 C    -2.108543    -1.680223     2.215934
 C    -3.266014    -1.161672     2.794412
 H    -3.516030    -0.109490     2.658822
 C    -1.763928    -3.034635     2.347464
 C    -0.509144    -3.558750     1.723051
 H    -0.367071    -3.167854     0.703963
 H     0.373723    -3.238813     2.297216
 H    -0.514545    -4.656873     1.690059
 C    -4.103657    -2.001439     3.524903
 H    -5.013562    -1.595779     3.972926
 C    -2.622393    -3.850127     3.089384
 H    -2.372167    -4.908830     3.199758
 C    -3.782884    -3.347878     3.675023
 H    -4.439056    -4.010925     4.243133
 C     2.125132    -0.870660     2.571359
 H     1.748754     0.100303     2.894768
 C     2.675049    -2.392810     0.771892
 O     2.668497    -2.586784    -0.557630
 C     3.067735    -3.823131    -1.087119
 H     4.138490    -4.012134    -0.900344
 H     2.888995    -3.764757    -2.167343
 H     2.470217    -4.650703    -0.668632
 C     2.530346    -1.821602     3.506413
 H     2.462870    -1.603442     4.573810
 C     3.107829    -3.337960     1.705340
 H     3.497160    -4.302162     1.379061
 C     3.032049    -3.043806     3.066398
 H     3.366676    -3.790399     3.790572
 C     4.319397     0.127239    -0.589066
 C     4.781116     0.563714     0.651388
 H     4.089299     1.048131     1.340108
 C     5.179213    -0.473471    -1.522766
 C     4.657175    -0.885921    -2.863385
 H     3.764964    -1.519317    -2.765021
 H     4.343088    -0.007458    -3.449458
 H     5.422248    -1.426941    -3.436891
 C     6.119309     0.376959     0.992073
 H     6.478477     0.714155     1.967087
 C     6.515967    -0.643244    -1.154170
 H     7.200026    -1.110983    -1.867817
 C     6.988973    -0.231854     0.091768
 H     8.038829    -0.381031     0.353794
 C     1.392012     2.654754     0.527218
 C     1.032714     2.985320    -0.778995
 H     0.961536     2.201014    -1.542239
 C     1.507887     3.640886     1.522059
 C     1.943690     3.262154     2.902922
 H     1.952604     4.137006     3.566965
 H     1.270286     2.507830     3.336306
 H     2.954459     2.823485     2.894256
 C     0.759929     4.312837    -1.103630
 H     0.489585     4.563339    -2.132342
 C     1.223891     4.960123     1.166812
 H     1.305550     5.735493     1.933364
 C     0.849629     5.304982    -0.131697
 H     0.642987     6.347687    -0.383274
