  90
scf done:    -2922.136550
 C    -2.144064    -3.130511    -0.062652
 H    -2.664203    -3.517385     0.829903
 H    -2.955958    -2.754209    -0.710938
 C    -1.437789    -4.285112    -0.765158
 H    -0.690664    -4.764087    -0.111808
 H    -2.147674    -5.071782    -1.080474
 H    -0.902038    -3.962383    -1.673528
Ir    -0.755316    -1.584349     0.466162
 C    -2.719760    -0.173579    -2.171310
 C    -3.979155    -0.368304     0.408040
 C    -2.179900     1.709806     0.008506
 C     1.729039     0.084721     2.392861
 C     2.567751    -0.974203    -0.149106
 C     1.159253     1.489352    -0.109470
 P     1.107966    -0.182202     0.643121
 P    -2.335000    -0.078510    -0.358841
 C    -0.095822    -2.714744     1.774838
 O     0.204117    -3.324018     2.711218
 H    -3.230585    -1.145054    -2.274411
 H    -3.446063     0.603313    -2.450539
 C    -1.512105    -0.126465    -3.065655
 C    -1.382684     0.860957    -4.045492
 H    -2.166810     1.613631    -4.167589
 C    -0.506748    -1.095919    -2.952991
 H    -0.595119    -1.866704    -2.177649
 C    -0.269169     0.879485    -4.884988
 H    -0.180154     1.654022    -5.650866
 C     0.611805    -1.098869    -3.790505
 C     1.687900    -2.132595    -3.641940
 H     1.350031    -2.980063    -3.030877
 H     2.012346    -2.515642    -4.621012
 H     2.574838    -1.707514    -3.144518
 C     0.719647    -0.090727    -4.759460
 H     1.587085    -0.074845    -5.425098
 C    -4.066482    -1.114205     1.587793
 H    -3.152183    -1.558625     1.991167
 C    -5.140581     0.213866    -0.115497
 H    -5.095807     0.828774    -1.017366
 C    -5.288786    -1.292133     2.229961
 H    -5.372746    -1.873607     3.149758
 C    -6.370262     0.035483     0.509294
 H    -7.285799     0.477028     0.111831
 C    -6.426440    -0.718480     1.677010
 F    -7.599803    -0.887993     2.279771
 C    -2.099959     2.705677    -0.967188
 H    -2.042533     2.442196    -2.023316
 C    -2.209617     2.083831     1.359757
 H    -2.269723     1.311590     2.131787
 C    -2.064287     4.052115    -0.608378
 H    -1.978128     4.840425    -1.358191
 C    -2.178967     3.422502     1.730950
 H    -2.208518     3.728901     2.778170
 C    -2.108134     4.391370     0.735727
 F    -2.052284     5.675653     1.084671
 H     1.127542     0.899457     2.822993
 H     1.429730    -0.830218     2.922892
 C     3.202988     0.308439     2.528084
 C     4.052066    -0.794711     2.684617
 H     3.622558    -1.796572     2.765148
 C     3.774840     1.580142     2.421389
 H     3.128400     2.452300     2.301569
 C     5.431749    -0.623363     2.708246
 H     6.084574    -1.492495     2.818727
 C     5.160767     1.771385     2.443947
 C     5.739734     3.153560     2.347968
 H     5.119102     3.807196     1.717343
 H     5.803194     3.624607     3.343246
 H     6.756389     3.137143     1.929506
 C     5.984687     0.649350     2.580339
 H     7.070807     0.775631     2.590588
 C     3.694014    -0.229879    -0.530544
 H     3.691297     0.856599    -0.430195
 C     2.610590    -2.367412    -0.276346
 H     1.729850    -2.953857    -0.005048
 C     4.833545    -0.857163    -1.020285
 H     5.718352    -0.288028    -1.310018
 C     3.749503    -3.011032    -0.754293
 H     3.792226    -4.096752    -0.856541
 C     4.848554    -2.244586    -1.118094
 F     5.941800    -2.849507    -1.575817
 C     1.257251     1.593591    -1.504322
 H     1.326069     0.693613    -2.117237
 C     1.045734     2.666824     0.637604
 H     0.927892     2.628332     1.720791
 C     1.268479     2.832983    -2.135120
 H     1.337960     2.912007    -3.221022
 C     1.062109     3.915164     0.021720
 H     0.961324     4.837012     0.597049
 C     1.174766     3.981024    -1.360118
 F     1.160143     5.172729    -1.956522
