 106
scf done:    -2983.293338
 C     1.802427    -2.796072    -1.298988
 H     1.685696    -3.298862    -2.271301
 H     2.827001    -2.392209    -1.297722
 C     1.609775    -3.802073    -0.169355
 H     0.602917    -4.248451    -0.188812
 H     2.334926    -4.634521    -0.236254
 H     1.741173    -3.337997     0.822269
Ir     0.318755    -1.278680    -1.017156
 C     1.613210     1.540999     0.786456
 O     2.389019    -0.871515     1.643371
 O     3.279539    -0.135015    -0.642057
 C    -2.192770     1.293714    -1.476500
 O    -2.886592    -1.090480    -0.600817
 O    -1.691825     0.493053     1.072125
 P    -1.557501    -0.105050    -0.478512
 P     1.869609    -0.180590     0.211748
 C    -0.377738    -1.698703    -2.702304
 O    -0.706560    -1.823158    -3.799791
 H     0.969244     1.410273     1.668051
 H     2.584481     1.919823     1.145089
 C     0.984080     2.522442    -0.159869
 C     1.239608     2.514059    -1.532835
 H     1.879161     1.747979    -1.967091
 C     0.139260     3.513347     0.358058
 H    -0.076232     3.517073     1.430763
 C     0.666309     3.479757    -2.358906
 H     0.868393     3.457519    -3.432238
 C    -0.435604     4.495102    -0.452700
 C    -1.325832     5.558673     0.121422
 H    -1.470510     5.423607     1.202668
 H    -0.897508     6.561022    -0.037453
 H    -2.317195     5.547574    -0.358279
 C    -0.162215     4.461937    -1.827035
 H    -0.609768     5.212843    -2.483760
 C     3.684143    -0.918101     2.096834
 C     4.624298    -1.693928     1.418078
 H     4.310311    -2.243748     0.530186
 C     4.024983    -0.212724     3.262151
 C     2.998486     0.566551     4.026264
 H     2.612204     1.419963     3.448306
 H     2.132927    -0.063394     4.276679
 H     3.423179     0.959392     4.959785
 C     5.939537    -1.741977     1.868806
 H     6.674659    -2.340428     1.326381
 C     5.354047    -0.285542     3.695559
 H     5.637913     0.256687     4.601739
 C     6.309734    -1.028751     3.006961
 H     7.340494    -1.059168     3.366643
 C     4.165287     0.859851    -0.949607
 C     4.873840     1.553040     0.030108
 H     4.740900     1.293410     1.081796
 C     4.376688     1.095798    -2.318808
 C     3.665364     0.263900    -3.342436
 H     4.073127    -0.759797    -3.359446
 H     2.594340     0.147925    -3.114012
 H     3.775063     0.693665    -4.347148
 C     5.777609     2.543990    -0.349707
 H     6.331490     3.089157     0.417757
 C     5.288200     2.094946    -2.667132
 H     5.460707     2.301081    -3.726957
 C     5.978081     2.823416    -1.698482
 H     6.682570     3.601394    -2.000606
 H    -1.410676     2.063687    -1.422856
 H    -2.196212     0.908634    -2.508319
 C    -3.527445     1.818317    -1.057213
 C    -4.706948     1.338495    -1.637413
 H    -4.651764     0.613133    -2.452284
 C    -3.616381     2.739094    -0.009030
 H    -2.693653     3.091386     0.456306
 C    -5.942414     1.775388    -1.167114
 H    -6.861216     1.401194    -1.625362
 C    -4.848643     3.174744     0.486225
 C    -4.908451     4.093252     1.670991
 H    -4.781265     3.519648     2.604571
 H    -4.107571     4.846650     1.639489
 H    -5.872781     4.617465     1.731871
 C    -6.014133     2.683053    -0.111344
 H    -6.989249     3.012212     0.257911
 C    -2.792531    -2.445385    -0.396960
 C    -2.136676    -2.967702     0.716643
 H    -1.698715    -2.294588     1.455981
 C    -3.398533    -3.274229    -1.351524
 C    -4.086775    -2.675255    -2.539173
 H    -4.855110    -1.950996    -2.228289
 H    -3.371793    -2.132814    -3.178381
 H    -4.565369    -3.452774    -3.149658
 C    -2.064209    -4.348610     0.886800
 H    -1.546480    -4.757127     1.757141
 C    -3.315343    -4.654535    -1.151165
 H    -3.778280    -5.319048    -1.885723
 C    -2.652908    -5.194380    -0.049175
 H    -2.599986    -6.277796     0.077945
 C    -2.590103     0.164642     2.058582
 C    -3.965297     0.090760     1.831686
 H    -4.363801     0.265548     0.834744
 C    -2.053456    -0.074660     3.334636
 C    -0.576678     0.001151     3.562463
 H    -0.014010    -0.600800     2.832916
 H    -0.213931     1.037843     3.466541
 H    -0.318885    -0.349138     4.571236
 C    -4.821839    -0.215640     2.886096
 H    -5.896352    -0.272149     2.697956
 C    -2.939044    -0.375007     4.373417
 H    -2.530932    -0.562234     5.370467
 C    -4.313715    -0.447262     4.161420
 H    -4.983743    -0.689204     4.989305
