  88
scf done:    -2945.950351
 C    -1.797483    -1.657802    -2.993875
 H    -1.456306    -2.475440    -3.648084
 H    -2.659457    -2.080504    -2.448226
 C    -2.244234    -0.487834    -3.864682
 H    -1.400049    -0.041033    -4.414132
 H    -2.995522    -0.790745    -4.617023
 H    -2.698525     0.327461    -3.275555
Ir    -0.225851    -1.033853    -1.676794
 C    -3.503696    -0.481423    -0.366575
 O    -1.283571     0.062995     1.159734
 O    -1.950548     1.725901    -0.691660
 C     1.748483    -0.378173     1.269708
 O     2.937690    -0.426430    -1.263424
 O     1.401905     1.574139    -0.668151
 P     1.488194    -0.076847    -0.547145
 P    -1.768369     0.097665    -0.423107
 C     0.811418    -2.478822    -2.276464
 O     1.393786    -3.438379    -2.519584
 H    -4.111373     0.293413     0.124145
 H    -3.823605    -0.501657    -1.423633
 C    -3.737547    -1.814163     0.297588
 C    -2.799318    -2.853685     0.276383
 H    -1.842001    -2.708684    -0.237668
 C    -4.949726    -2.027028     0.967013
 H    -5.693320    -1.225878     1.000237
 C    -3.060057    -4.067163     0.907371
 H    -2.330471    -4.878880     0.897829
 C    -5.227144    -3.236278     1.597958
 H    -6.170238    -3.407672     2.119855
 C    -4.272565    -4.245469     1.559793
 F    -4.526471    -5.403816     2.165839
 C    -1.840557     0.765989     2.199590
 C    -2.906994     0.232485     2.921972
 H    -3.303899    -0.746563     2.650280
 C    -1.288096     1.998819     2.544964
 H    -0.452424     2.391087     1.964882
 C    -3.442325     0.963217     3.981967
 H    -4.280458     0.549615     4.547813
 C    -1.827932     2.716462     3.609332
 H    -1.396901     3.684786     3.874180
 C    -2.911228     2.206559     4.325499
 H    -3.335400     2.772948     5.157422
 C    -3.091626     2.477207    -0.824864
 C    -3.847741     2.856127     0.285907
 H    -3.545663     2.536946     1.283964
 C    -3.448327     2.904309    -2.104503
 H    -2.826472     2.608465    -2.951153
 C    -4.976981     3.652809     0.102018
 H    -5.567899     3.947744     0.972344
 C    -4.577131     3.702209    -2.274036
 H    -4.854390     4.034848    -3.277023
 C    -5.348000     4.075622    -1.173327
 H    -6.233643     4.699938    -1.309308
 H     1.720198     0.583921     1.801217
 H     0.830904    -0.915922     1.549991
 C     2.968878    -1.161449     1.643296
 C     3.164748    -2.461543     1.156839
 H     2.422877    -2.909685     0.490883
 C     3.938866    -0.615955     2.490623
 H     3.801043     0.393933     2.884927
 C     4.300989    -3.190685     1.492019
 H     4.464027    -4.200733     1.112165
 C     5.079794    -1.334198     2.841837
 H     5.839683    -0.915252     3.503731
 C     5.248258    -2.614869     2.332438
 F     6.337130    -3.309339     2.659044
 C     4.069215     0.346430    -1.298109
 C     5.211145    -0.083051    -0.622515
 H     5.182848    -1.021976    -0.069772
 C     4.085106     1.525835    -2.045437
 H     3.184495     1.830306    -2.579740
 C     6.365610     0.695994    -0.669340
 H     7.258630     0.360036    -0.136919
 C     5.243287     2.297851    -2.078771
 H     5.251861     3.226831    -2.653556
 C     6.383927     1.891903    -1.386357
 H     7.289466     2.501868    -1.414576
 C     1.747528     2.593044     0.169584
 C     2.947674     2.629107     0.883323
 H     3.674422     1.821494     0.783561
 C     0.840123     3.652154     0.257790
 H    -0.084919     3.585967    -0.317763
 C     3.219427     3.723605     1.703633
 H     4.160069     3.749565     2.258901
 C     1.129253     4.742384     1.073594
 H     0.416481     5.568109     1.138116
 C     2.316325     4.780075     1.806366
 H     2.540980     5.634703     2.447987
