  60
scf done:    -2179.555787
 C    -3.944309     1.109906     0.290166
 H    -4.901438     0.588858     0.450919
 H    -3.773613     1.714397     1.196475
 C    -4.081976     2.022169    -0.924946
 H    -4.227661     1.453008    -1.856910
 H    -4.940822     2.712539    -0.829645
 H    -3.189033     2.653288    -1.078435
Ir    -2.309715    -0.267404     0.092170
 C    -0.023009     2.153875    -1.127871
 O    -1.526284     2.828995     1.120297
 O     0.361378     1.120565     1.406808
 C     0.434888    -2.129129     1.286757
 O    -0.750671    -3.150688    -0.812995
 O     0.585959    -0.992836    -1.244087
 P    -0.531170    -1.635730    -0.200585
 P    -0.870370     1.522415     0.394480
 C    -3.587486    -1.633629     0.148007
 O    -4.372147    -2.466436     0.254663
 H    -0.030834     1.262789    -1.773867
 H    -0.690014     2.896899    -1.591552
 C     1.379403     2.658175    -0.962755
 C     1.695583     4.020079    -1.015399
 H     0.909896     4.751959    -1.218946
 C     2.416784     1.742386    -0.732511
 H     2.178973     0.678292    -0.696261
 C     3.001474     4.466790    -0.819864
 H     3.256816     5.527074    -0.863072
 C     3.724031     2.171772    -0.533094
 H     4.535470     1.464027    -0.352258
 C     4.000378     3.534168    -0.572118
 F     5.249793     3.952527    -0.378615
 C    -1.226756     4.184855     0.893348
 H    -0.167207     4.418611     1.083263
 H    -1.481403     4.487211    -0.135896
 H    -1.850015     4.769701     1.583492
 C     1.003289     2.038860     2.269094
 H     1.583986     2.790609     1.710754
 H     0.271508     2.541780     2.919322
 H     1.694098     1.458946     2.896355
 H     0.374941    -1.248887     1.941354
 H    -0.155442    -2.935887     1.747993
 C     1.854271    -2.523644     1.036240
 C     2.189251    -3.810254     0.596339
 H     1.399078    -4.554813     0.474915
 C     2.878278    -1.577447     1.170407
 H     2.629251    -0.569203     1.509253
 C     3.504888    -4.144195     0.287561
 H     3.777003    -5.143967    -0.055955
 C     4.199474    -1.894521     0.864592
 H     5.005036    -1.165111     0.969953
 C     4.495412    -3.177937     0.420762
 F     5.756470    -3.490928     0.124861
 C    -1.571327    -3.339896    -1.947681
 H    -2.299914    -2.519036    -2.057279
 H    -0.958664    -3.393661    -2.862942
 H    -2.115432    -4.286881    -1.824783
 C     1.531545    -1.733645    -1.994127
 H     2.540951    -1.613090    -1.572186
 H     1.287050    -2.805103    -2.005787
 H     1.521833    -1.348170    -3.024925
