  84
scf done:    -3041.948029
 C    -1.698924    -3.258371    -0.979170
 H    -1.477879    -4.168493    -0.393139
 H    -2.653233    -2.892348    -0.557543
 C    -1.916021    -3.650730    -2.438392
 H    -1.027591    -4.141798    -2.865672
 H    -2.763259    -4.350404    -2.561260
 H    -2.122372    -2.779702    -3.083061
Ir    -0.078969    -1.878235    -0.644193
 C    -3.018347    -0.266462    -1.575535
 C    -2.748639    -0.784654     1.337110
 C    -1.451578     1.463763     0.072217
 C     1.570473     0.414946     1.447229
 C     3.318968    -1.323886     0.027996
 C     2.064132     0.779060    -1.486147
 P     1.710714    -0.469678    -0.191386
 P    -1.808247    -0.324560    -0.157460
 C     1.031644    -3.238782    -1.244504
 O     1.689696    -4.086188    -1.660346
 H    -2.472554     0.241049    -2.385531
 H    -3.144274    -1.310864    -1.886690
 C    -4.337576     0.378176    -1.296465
 C    -5.443152    -0.413605    -0.960595
 H    -5.337884    -1.501438    -0.947569
 C    -4.493217     1.770882    -1.302084
 H    -3.647513     2.409635    -1.565601
 C    -6.666881     0.157920    -0.624961
 H    -7.531591    -0.453213    -0.360721
 C    -5.708621     2.359120    -0.962212
 H    -5.839518     3.442694    -0.962400
 C    -6.781379     1.542583    -0.622484
 F    -7.945426     2.100358    -0.295507
 C    -3.878795    -0.088422     1.795257
 H    -4.248125     0.786666     1.258695
 C    -2.290646    -1.890332     2.067807
 H    -1.407124    -2.427102     1.703751
 C    -4.541833    -0.495251     2.948142
 H    -5.423585     0.032920     3.314886
 C    -2.944903    -2.304665     3.223552
 H    -2.600724    -3.165225     3.799583
 C    -4.066826    -1.601519     3.645082
 F    -4.700403    -1.990331     4.746167
 C    -1.629718     2.139807     1.285096
 H    -2.029802     1.612776     2.152731
 C    -0.908878     2.168779    -1.011998
 H    -0.734187     1.664397    -1.963893
 C    -1.289081     3.485147     1.411835
 H    -1.422596     4.020118     2.353747
 C    -0.560514     3.510100    -0.900853
 H    -0.124057     4.056582    -1.738469
 C    -0.758924     4.153718     0.315744
 F    -0.413977     5.431604     0.438938
 H     0.601626     0.929796     1.417549
 H     1.456453    -0.424831     2.151877
 C     2.649121     1.354611     1.889919
 C     3.905054     0.895041     2.311303
 H     4.107416    -0.177083     2.345633
 C     2.420221     2.737410     1.882797
 H     1.446228     3.115045     1.565131
 C     4.908718     1.784791     2.684389
 H     5.889388     1.433214     3.009880
 C     3.411949     3.640663     2.255185
 H     3.236207     4.717875     2.247804
 C     4.651622     3.149993     2.646129
 F     5.609771     4.004689     3.000627
 C     4.510677    -0.913345    -0.575801
 H     4.514193    -0.061831    -1.258347
 C     3.341833    -2.434339     0.884368
 H     2.408103    -2.785968     1.333757
 C     5.706937    -1.580163    -0.318060
 H     6.644387    -1.272304    -0.784547
 C     4.529586    -3.101398     1.160506
 H     4.561458    -3.966785     1.824756
 C     5.701947    -2.660385     0.554057
 F     6.841981    -3.295737     0.809940
 C     1.488830     0.532027    -2.741553
 H     0.875778    -0.369318    -2.860099
 C     2.851445     1.927469    -1.321732
 H     3.336278     2.135504    -0.368525
 C     1.665304     1.416006    -3.801861
 H     1.222901     1.232883    -4.782850
 C     3.025976     2.827184    -2.370305
 H     3.627203     3.730463    -2.251377
 C     2.426121     2.561591    -3.596121
 F     2.589125     3.421349    -4.597214
