  84
scf done:    -2645.171909
 C     1.321576    -3.492057    -0.385543
 H     1.220163    -3.827320    -1.435072
 H     2.332792    -3.052095    -0.332556
 C     1.292204    -4.698239     0.546531
 H     0.357705    -5.274564     0.460259
 H     2.123257    -5.396856     0.338441
 H     1.384244    -4.404388     1.605361
Ir    -0.207702    -2.001542    -0.131579
 C     1.296769     1.311675    -0.534061
 C     2.697042    -0.607069     1.234843
 C     2.720489    -0.858318    -1.692340
 C    -2.033135     0.603538    -1.545956
 C    -3.568238    -0.928279     0.305164
 C    -1.618320     0.881176     1.397078
 P    -1.839909    -0.359631     0.053989
 P     1.641014    -0.505339    -0.255548
 C    -1.441119    -3.379229     0.012234
 O    -2.197839    -4.241575     0.109383
 H     0.917550     1.343412    -1.566787
 H     0.463299     1.568526     0.133219
 C     2.425688     2.272833    -0.356409
 C     2.536669     3.009264     0.829748
 H     1.771605     2.896227     1.602582
 C     3.413547     2.429079    -1.338137
 H     3.342117     1.866390    -2.271964
 C     3.612221     3.865538     1.046757
 H     3.709580     4.441451     1.968691
 C     4.498393     3.277183    -1.132700
 H     5.276257     3.404033    -1.887750
 C     4.586263     3.981853     0.062704
 F     5.623115     4.793841     0.264464
 C     2.280351    -1.478563     2.251308
 C     3.872424     0.137775     1.417937
 C     4.167704    -0.837332     3.611446
 C     4.598819     0.021436     2.601284
 C     3.008818    -1.591091     3.432842
 H     1.372975    -2.071766     2.088539
 H     2.669878    -2.276008     4.213469
 H     4.741287    -0.923782     4.537603
 H     5.509856     0.610125     2.731726
 H     4.232019     0.812339     0.641050
 C     4.090711    -1.116354    -1.612746
 C     2.092025    -0.877189    -2.945356
 C     4.203514    -1.341916    -4.017993
 C     2.830100    -1.107584    -4.101932
 C     4.827447    -1.355897    -2.773100
 H     4.588629    -1.142629    -0.642375
 H     5.898418    -1.558813    -2.698933
 H     4.783749    -1.528666    -4.924678
 H     2.329006    -1.119374    -5.072656
 H     1.008556    -0.735035    -3.008239
 H    -1.011555     0.812734    -1.886305
 H    -2.433509    -0.153294    -2.237723
 C    -2.859037     1.848468    -1.548870
 C    -4.260232     1.797098    -1.539329
 H    -4.765525     0.829600    -1.574907
 C    -2.240668     3.104716    -1.504794
 H    -1.149477     3.168034    -1.510602
 C    -5.020611     2.960417    -1.460355
 H    -6.111569     2.929334    -1.446677
 C    -2.986558     4.277819    -1.431524
 H    -2.509800     5.258821    -1.393238
 C    -4.372469     4.189052    -1.401775
 F    -5.096565     5.305076    -1.324505
 C    -4.143666    -1.742393    -0.681378
 C    -4.313094    -0.627083     1.449152
 C    -6.187741    -1.893010     0.594129
 C    -5.615290    -1.107280     1.590766
 C    -5.444916    -2.213909    -0.542853
 H    -3.562642    -2.024444    -1.564109
 H    -5.877376    -2.846516    -1.321513
 H    -7.208359    -2.266292     0.706196
 H    -6.184775    -0.862054     2.490485
 H    -3.876633    -0.012644     2.238511
 C    -0.599985     0.621613     2.322936
 C    -2.389331     2.043797     1.554865
 C    -1.061577     2.688796     3.474006
 C    -2.103572     2.942101     2.581306
 C    -0.315757     1.517507     3.351141
 H    -0.026543    -0.301820     2.217315
 H     0.490881     1.293672     4.053573
 H    -0.841696     3.399986     4.274167
 H    -2.705438     3.848207     2.683859
 H    -3.223434     2.251429     0.885174
