  96
scf done:    -2802.320033
 C    -1.236971    -3.843916     0.261906
 H    -0.670829    -4.563183     0.878884
 H    -2.087805    -3.543103     0.900245
 C    -1.751262    -4.567120    -0.979600
 H    -0.921510    -4.965732    -1.584685
 H    -2.407852    -5.420616    -0.726589
 H    -2.327977    -3.906175    -1.646527
Ir     0.039162    -2.163787    -0.093020
 C    -3.468726    -1.510935    -0.474683
 C    -2.155676     0.021720     1.630876
 C    -1.753697     0.611031    -1.244755
 C     1.144035     1.192176     0.694656
 C     3.152523    -0.822344     0.652649
 C     2.118285     0.110305    -1.853669
 P     1.571215    -0.411645    -0.183864
 P    -1.835943    -0.733601    -0.001779
 C     1.353521    -3.383442    -0.572535
 O     2.134455    -4.133078    -0.968936
 H    -3.337958    -1.809234    -1.525464
 H    -3.540395    -2.434721     0.114990
 C    -4.668849    -0.643269    -0.279966
 C    -5.452254    -0.775599     0.873913
 H    -5.210390    -1.557545     1.597878
 C    -4.997585     0.368511    -1.193234
 H    -4.408054     0.486341    -2.105127
 C    -6.516213     0.084451     1.130297
 H    -7.127662    -0.012483     2.029206
 C    -6.053058     1.243175    -0.947710
 H    -6.311475     2.037881    -1.649857
 C    -6.794361     1.095048     0.218721
 F    -7.795633     1.939685     0.467642
 C    -1.411778    -0.492891     2.703382
 H    -0.669927    -1.274890     2.502414
 C    -3.116175     1.010303     1.877379
 H    -3.720136     1.405953     1.059061
 C    -1.625213    -0.010838     3.991263
 H    -1.046504    -0.413549     4.825866
 C    -3.340293     1.502416     3.168278
 C    -4.377636     2.563255     3.395533
 H    -4.042201     3.536943     3.002301
 H    -5.316881     2.313157     2.878426
 H    -4.596334     2.694086     4.464446
 C    -2.580180     0.979069     4.219444
 H    -2.744373     1.349937     5.235014
 C    -1.558605     0.195464    -2.570753
 H    -1.388577    -0.863411    -2.787136
 C    -1.881526     1.972384    -0.969078
 H    -1.999196     2.310275     0.062473
 C    -1.555315     1.132224    -3.596750
 H    -1.405724     0.805405    -4.628328
 C    -1.860272     2.929830    -1.993687
 C    -2.005604     4.387068    -1.663588
 H    -2.989025     4.595035    -1.212419
 H    -1.243696     4.708563    -0.936142
 H    -1.906852     5.016252    -2.558989
 C    -1.717208     2.488705    -3.311460
 H    -1.711915     3.219410    -4.124488
 H     0.486990     1.761975     0.024136
 H     0.525465     0.881776     1.548393
 C     2.320515     1.987841     1.162107
 C     2.842532     1.762592     2.442932
 H     2.332087     1.066624     3.112784
 C     2.995208     2.882115     0.322398
 H     2.612508     3.078022    -0.680832
 C     4.020683     2.369025     2.863526
 H     4.443913     2.175446     3.850520
 C     4.175960     3.500715     0.727263
 H     4.716833     4.185772     0.071920
 C     4.682272     3.220877     1.988984
 F     5.839640     3.772074     2.365371
 C     3.103893    -1.680377     1.755568
 H     2.162394    -2.183293     1.997855
 C     4.359424    -0.197857     0.320458
 H     4.400894     0.472080    -0.541463
 C     4.250105    -1.890122     2.519909
 H     4.215794    -2.566931     3.377196
 C     5.512708    -0.388378     1.085645
 C     6.777776     0.350230     0.757298
 H     6.855151     0.554124    -0.320377
 H     6.805135     1.323093     1.276072
 H     7.669460    -0.213936     1.066971
 C     5.439786    -1.245242     2.191238
 H     6.333344    -1.412519     2.799458
 C     2.939689    -0.767443    -2.574007
 H     3.281422    -1.698750    -2.115441
 C     1.674390     1.282142    -2.473685
 H     0.998212     1.960589    -1.948583
 C     3.327214    -0.451693    -3.872269
 H     3.973588    -1.137470    -4.425345
 C     2.063225     1.616070    -3.775789
 C     1.590522     2.886572    -4.421235
 H     0.849536     2.678853    -5.210480
 H     1.114438     3.556322    -3.691798
 H     2.423907     3.428433    -4.894191
 C     2.900216     0.733815    -4.466672
 H     3.219752     0.978288    -5.483700
