 100
scf done:    -3102.959687
 C    -1.404410    -3.218422    -0.826513
 H    -1.309886    -4.181757    -0.298632
 H    -2.449211    -2.906919    -0.644915
 C    -1.192394    -3.441070    -2.320623
 H    -0.190437    -3.848743    -2.530134
 H    -1.929089    -4.145388    -2.750994
 H    -1.275302    -2.503509    -2.899203
Ir     0.052539    -1.783184    -0.193728
 C    -2.852429    -0.186102    -1.375238
 C    -2.812696    -0.933735     1.485182
 C    -1.349946     1.352803     0.807692
 C     2.526437    -0.178890     1.663772
 C     3.186015    -0.726670    -1.206080
 C     1.565814     1.480208    -0.599930
 P     1.815150    -0.256788    -0.064110
 P    -1.744232    -0.311497     0.123868
 C     1.119653    -3.165561     0.399682
 O     1.715437    -3.989556     0.955437
 H    -2.408736     0.605481    -1.988945
 H    -2.655045    -1.144533    -1.876144
 C    -4.329820    -0.006206    -1.214722
 C    -5.122226    -1.064079    -0.750922
 H    -4.653128    -2.019786    -0.504369
 C    -4.961785     1.200386    -1.533636
 H    -4.360611     2.033259    -1.898442
 C    -6.497118    -0.919508    -0.584872
 H    -7.116739    -1.738795    -0.216168
 C    -6.336369     1.361121    -1.383282
 H    -6.836033     2.298939    -1.633820
 C    -7.087820     0.297016    -0.900173
 F    -8.405066     0.447668    -0.740053
 C    -2.555547    -2.179247     2.060691
 H    -1.707697    -2.748972     1.671077
 C    -3.867421    -0.150579     2.006018
 O    -4.047745     1.060015     1.456274
 C    -5.067385     1.896616     1.921611
 H    -6.061835     1.438921     1.787561
 H    -5.016016     2.810369     1.316756
 H    -4.922892     2.159223     2.983875
 C    -3.337585    -2.672855     3.103877
 H    -3.118829    -3.651852     3.534440
 C    -4.654149    -0.643904     3.051729
 H    -5.476288    -0.049502     3.450184
 C    -4.389567    -1.902860     3.588596
 H    -5.014915    -2.275459     4.403937
 C    -0.781621     1.309640     2.084208
 H    -0.619290     0.331207     2.546033
 C    -1.554253     2.608712     0.210301
 O    -2.073012     2.636870    -1.038581
 C    -2.351317     3.872854    -1.633017
 H    -3.102565     4.441923    -1.057503
 H    -2.756735     3.656866    -2.630628
 H    -1.441379     4.484404    -1.746860
 C    -0.437851     2.467143     2.777776
 H    -0.003825     2.399190     3.777654
 C    -1.224908     3.775114     0.909888
 H    -1.382580     4.751284     0.452818
 C    -0.672005     3.703577     2.185469
 H    -0.418088     4.627335     2.710832
 H     1.909963     0.565253     2.190651
 H     2.226239    -1.156963     2.068223
 C     3.987460     0.036663     1.904837
 C     4.909668    -0.957335     1.551351
 H     4.551415    -1.888809     1.106248
 C     4.471204     1.203994     2.504543
 H     3.768511     1.979606     2.820934
 C     6.275236    -0.776050     1.747330
 H     6.999182    -1.542786     1.465694
 C     5.833901     1.400040     2.716179
 H     6.217838     2.308061     3.184942
 C     6.721816     0.407986     2.321386
 F     8.031247     0.593000     2.504945
 C     3.040348    -1.881088    -1.979154
 H     2.125286    -2.465590    -1.849953
 C     4.339131     0.068051    -1.402121
 O     4.431247     1.195878    -0.682999
 C     5.541779     2.033455    -0.825676
 H     6.477346     1.520480    -0.545424
 H     5.381726     2.874946    -0.140364
 H     5.629738     2.419878    -1.855948
 C     4.011897    -2.280593    -2.895218
 H     3.871095    -3.192017    -3.479405
 C     5.319723    -0.332505    -2.316812
 H     6.217386     0.269408    -2.457604
 C     5.154441    -1.504166    -3.052902
 H     5.931489    -1.802569    -3.761318
 C     1.985281     2.596512     0.117616
 H     2.435113     2.462073     1.100388
 C     0.993748     1.671900    -1.874113
 O     0.575002     0.556147    -2.502845
 C     0.087460     0.628940    -3.811781
 H    -0.823925     1.249228    -3.874227
 H    -0.160697    -0.398700    -4.105516
 H     0.846029     1.030827    -4.505434
 C     1.874248     3.881408    -0.411115
 H     2.210373     4.742097     0.170524
 C     0.900180     2.953964    -2.421160
 H     0.479063     3.100894    -3.416052
 C     1.346082     4.052913    -1.686218
 H     1.276242     5.052553    -2.123136
