 104
scf done:    -2507.329380
 C     1.000383     0.627039    -3.288700
 H     0.386209     1.310324    -3.900601
 H     1.959471     1.160494    -3.161380
 C     1.252905    -0.655946    -4.075234
 H     0.312261    -1.181439    -4.304093
 H     1.764526    -0.465422    -5.037576
 H     1.881110    -1.368887    -3.513888
Ir     0.027112     0.088285    -1.449527
 C     2.373220     2.538425    -0.807911
 C     2.250819     0.791148     1.417166
 C     3.551830    -0.115356    -0.992090
 C    -1.148866    -0.507289     2.002995
 C    -2.705193    -1.639563    -0.081635
 C    -0.121425    -2.773393     0.417809
 P    -0.963326    -1.131785     0.257968
 P     2.029411     0.754053    -0.417884
 C    -1.583966     0.378664    -2.308917
 O    -2.578392     0.719300    -2.790125
 H     3.296098     2.833267    -0.285985
 H     2.567911     2.590167    -1.888774
 C     1.234640     3.438294    -0.430870
 C     0.138942     3.590538    -1.292347
 H     0.129619     3.055866    -2.243209
 C     1.219168     4.114715     0.793376
 H     2.065827     4.013369     1.477800
 C    -0.937965     4.399406    -0.946773
 H    -1.795711     4.519719    -1.610700
 C     0.144385     4.924456     1.159199
 H     0.120607     5.453574     2.113183
 C    -0.918052     5.056305     0.276930
 F    -1.961608     5.817791     0.621104
 H     1.353049     1.286733     1.823177
 H     3.097160     1.460538     1.639634
 C     2.459626    -0.571835     2.057220
 H     1.673146    -1.257423     1.709133
 H     3.411506    -1.008855     1.706052
 C     2.461432    -0.573778     3.587855
 H     1.510655    -0.117348     3.923042
 C     2.501024    -2.005948     4.108266
 H     1.651979    -2.595654     3.727576
 H     2.466255    -2.036657     5.207980
 H     3.426872    -2.513707     3.789961
 C     3.605548     0.252194     4.164372
 H     3.597670     0.227315     5.264764
 H     3.549367     1.308125     3.859932
 H     4.579680    -0.143189     3.829536
 H     3.492139    -0.135157    -2.092368
 H     3.411249    -1.160575    -0.671781
 C     4.894864     0.432787    -0.531293
 H     5.049612     1.429991    -0.975624
 H     4.896568     0.585074     0.563502
 C     6.093440    -0.452272    -0.890419
 H     6.038985    -0.661316    -1.975256
 C     7.398160     0.287458    -0.618192
 H     7.453499     1.230418    -1.184034
 H     8.271765    -0.322700    -0.894595
 H     7.491725     0.534959     0.452658
 C     6.064435    -1.785454    -0.150413
 H     6.927245    -2.410851    -0.426084
 H     5.156855    -2.367730    -0.369979
 H     6.105832    -1.625848     0.940735
 H    -1.379603    -1.353126     2.667485
 H    -0.178046    -0.098573     2.314190
 C    -2.228479     0.530460     2.103325
 C    -2.100540     1.779582     1.478509
 H    -1.199068     2.010042     0.902827
 C    -3.412448     0.249530     2.794926
 H    -3.530495    -0.720909     3.284942
 C    -3.121270     2.723556     1.556852
 H    -3.032146     3.705710     1.092676
 C    -4.444602     1.180931     2.876615
 H    -5.368952     0.968642     3.416682
 C    -4.281468     2.411210     2.254436
 F    -5.259485     3.313958     2.330424
 H    -3.258528    -0.697716    -0.230271
 H    -3.130992    -2.108577     0.820269
 C    -2.845610    -2.540890    -1.301772
 H    -2.120012    -2.226136    -2.072678
 H    -2.572889    -3.578153    -1.033481
 C    -4.243308    -2.540181    -1.923626
 H    -4.460254    -1.497669    -2.221518
 C    -4.263202    -3.399370    -3.181642
 H    -3.512751    -3.057273    -3.911152
 H    -5.248093    -3.369777    -3.672877
 H    -4.041994    -4.453475    -2.942672
 C    -5.314951    -2.984337    -0.934671
 H    -6.311245    -2.986174    -1.403326
 H    -5.365585    -2.322309    -0.056927
 H    -5.115480    -4.008204    -0.573904
 H     0.960950    -2.591157     0.503264
 H    -0.255448    -3.220971    -0.579723
 C    -0.597075    -3.712528     1.514663
 H    -0.390475    -3.259007     2.498933
 H    -1.694197    -3.835943     1.463136
 C     0.052028    -5.100019     1.481557
 H     1.148587    -4.950361     1.468667
 C    -0.298639    -5.879318     2.743851
 H     0.019529    -5.342205     3.651285
 H     0.182967    -6.869231     2.752576
 H    -1.387515    -6.039281     2.815374
 C    -0.331616    -5.886472     0.232905
 H     0.148499    -6.877003     0.225124
 H    -0.035870    -5.371442    -0.693216
 H    -1.422560    -6.045497     0.193191
