  86
scf done:    -2073.254755
 C     3.221097     1.132418    -1.570226
 H     3.311819     2.127433    -2.035384
 H     4.057092     1.100788    -0.852067
 C     3.430928     0.096041    -2.669690
 H     2.624887     0.132137    -3.420669
 H     4.381134     0.249827    -3.214598
 H     3.454011    -0.938865    -2.288077
Ir     1.334337     0.955674    -0.542569
 C     2.082584    -2.595764    -0.331425
 C     4.050889    -0.853990     0.851146
 C     1.575140    -1.399020     2.213301
 C    -1.563602    -0.648481     1.080047
 C    -1.344681     2.148203     1.526301
 C    -2.148421     1.107693    -1.065034
 P    -0.874057     0.881641     0.257605
 P     2.234499    -0.965861     0.549280
 C     1.115265     2.677218    -1.166654
 O     1.101500     3.777976    -1.515711
 H     2.827428    -2.572747    -1.142323
 H     2.367181    -3.407200     0.355326
 C     0.711037    -2.825021    -0.894728
 C    -0.141308    -3.796665    -0.361636
 H     0.193928    -4.409848     0.479288
 C     0.258274    -2.043367    -1.965055
 H     0.911220    -1.259658    -2.362910
 C    -1.413144    -3.987125    -0.901390
 H    -2.076769    -4.743733    -0.476289
 C    -1.006612    -2.231220    -2.528048
 C    -1.437046    -1.418692    -3.714453
 H    -0.978327    -0.419443    -3.700983
 H    -1.129161    -1.907262    -4.653878
 H    -2.529916    -1.300234    -3.751885
 C    -1.840117    -3.215286    -1.978870
 H    -2.834491    -3.377903    -2.404577
 H     4.511704    -0.797706    -0.147676
 H     4.220419     0.136469     1.305242
 C     4.711526    -1.949512     1.676907
 H     4.469793    -2.940655     1.256353
 H     4.305226    -1.946687     2.701863
 C     6.223267    -1.784873     1.739113
 H     6.670630    -1.828227     0.733514
 H     6.498969    -0.813533     2.179358
 H     6.690195    -2.573580     2.348334
 H     0.574337    -1.824501     2.047492
 H     2.185546    -2.213867     2.635872
 C     1.515057    -0.207392     3.159111
 H     1.035802     0.635907     2.631967
 H     2.539979     0.137446     3.379038
 C     0.785629    -0.510532     4.458216
 H    -0.258348    -0.812112     4.271201
 H     1.267696    -1.333498     5.009713
 H     0.763831     0.367545     5.121300
 H    -1.259441    -1.493132     0.444569
 H    -1.017272    -0.732531     2.028404
 C    -3.038948    -0.679173     1.338372
 C    -3.581231    -0.152501     2.517641
 H    -2.917940     0.263593     3.280142
 C    -3.913367    -1.236509     0.398287
 H    -3.493218    -1.676892    -0.509544
 C    -4.957460    -0.169645     2.730109
 H    -5.368391     0.238165     3.657043
 C    -5.297305    -1.257436     0.591322
 C    -6.205119    -1.829672    -0.459067
 H    -6.513083    -1.052523    -1.178725
 H    -5.705703    -2.624506    -1.032311
 H    -7.121904    -2.248063    -0.018858
 C    -5.811770    -0.712568     1.773369
 H    -6.890830    -0.724979     1.950040
 H    -2.445621     2.173798     1.594025
 H    -0.983855     1.749908     2.491078
 C    -0.780904     3.547036     1.325838
 H    -1.096720     3.948341     0.349453
 H     0.318069     3.484915     1.280934
 C    -1.204642     4.503387     2.429565
 H    -2.300906     4.607275     2.474474
 H    -0.867935     4.146496     3.416653
 H    -0.779764     5.506874     2.275729
 H    -2.222728     0.124788    -1.558336
 H    -3.118269     1.274303    -0.567141
 C    -1.891706     2.179122    -2.113237
 H    -0.946973     1.955110    -2.633678
 H    -1.738815     3.158908    -1.632582
 C    -3.029483     2.279465    -3.117652
 H    -3.182460     1.322804    -3.642844
 H    -3.980033     2.537801    -2.623603
 H    -2.827552     3.048954    -3.878145
