 106
scf done:    -2983.299825
 C    -2.454065     2.959141    -0.761631
 H    -2.776951     3.429798    -1.703908
 H    -3.371451     2.501789    -0.354312
 C    -1.921657     4.019615     0.196808
 H    -1.030373     4.527272    -0.205222
 H    -2.677317     4.797352     0.414362
 H    -1.617283     3.590313     1.166884
Ir    -0.871960     1.548810    -1.113440
 C    -2.671987     0.410028     1.807480
 O    -3.637296     0.012037    -0.712899
 O    -1.785228    -1.489069     0.252797
 C     1.783544    -0.726996    -2.280258
 O     2.369020     1.512388    -1.057012
 O     1.237216    -0.348117     0.407133
 P     1.093938     0.432363    -1.038805
 P    -2.179843     0.108830     0.068698
 C    -0.363460     2.589732    -2.593052
 O    -0.156134     3.140208    -3.581001
 H    -2.870297     1.492050     1.862828
 H    -3.622717    -0.116433     1.980503
 C    -1.634801    -0.019587     2.802736
 C    -1.765660    -1.245847     3.461121
 H    -2.627531    -1.882599     3.246988
 C    -0.519114     0.779134     3.072705
 H    -0.415911     1.735699     2.551670
 C    -0.808866    -1.644327     4.391173
 H    -0.925861    -2.594783     4.917991
 C     0.462889     0.382263     3.985945
 C     1.693298     1.209237     4.214675
 H     2.519756     0.847701     3.579272
 H     1.525378     2.268032     3.972027
 H     2.032958     1.146552     5.258774
 C     0.293990    -0.836585     4.652967
 H     1.047714    -1.159839     5.375891
 C    -4.747048    -0.630116    -0.221794
 C    -5.822392     0.141509     0.218137
 H    -5.741496     1.229895     0.180114
 C    -4.825174    -2.021494    -0.190887
 H    -3.987223    -2.620844    -0.548321
 C    -6.970794    -0.483125     0.693466
 H    -7.807949     0.130434     1.037899
 C    -5.982172    -2.629923     0.291295
 H    -6.035687    -3.721858     0.314571
 C    -7.073689    -1.879395     0.741298
 C    -8.327845    -2.544419     1.229727
 H    -9.088202    -2.589713     0.432120
 H    -8.773899    -1.994999     2.071994
 H    -8.135709    -3.575695     1.558465
 C    -1.290971    -2.284626    -0.738114
 C    -0.536548    -3.391027    -0.344071
 H    -0.366207    -3.557154     0.720168
 C    -1.546527    -2.061691    -2.092192
 H    -2.149465    -1.206822    -2.404181
 C    -0.018847    -4.251889    -1.303750
 H     0.573772    -5.112845    -0.981538
 C    -1.010440    -2.933741    -3.040641
 H    -1.205001    -2.742656    -4.099324
 C    -0.229732    -4.033487    -2.672999
 C     0.394412    -4.932750    -3.699276
 H     0.298719    -5.992919    -3.420079
 H     1.471546    -4.718866    -3.802475
 H    -0.065882    -4.797439    -4.688006
 H     1.018464    -1.509514    -2.385855
 H     1.772786    -0.139880    -3.213070
 C     3.132959    -1.310547    -1.991864
 C     4.306829    -0.607581    -2.287857
 H     4.243716     0.370484    -2.769440
 C     3.230843    -2.556742    -1.368585
 H     2.312020    -3.099979    -1.134719
 C     5.543218    -1.146396    -1.947381
 H     6.458071    -0.596380    -2.181796
 C     4.464419    -3.103289    -1.003048
 C     4.522545    -4.409331    -0.266416
 H     5.540884    -4.823111    -0.251651
 H     4.197310    -4.270753     0.777889
 H     3.854796    -5.158211    -0.719196
 C     5.622832    -2.380811    -1.303402
 H     6.599227    -2.790452    -1.030168
 C     2.219250     2.753630    -0.490481
 C     2.488544     3.878816    -1.263894
 H     2.797598     3.747891    -2.302372
 C     1.814999     2.896063     0.836961
 H     1.622947     2.006941     1.437670
 C     2.334068     5.146578    -0.708554
 H     2.538675     6.025981    -1.325197
 C     1.662625     4.169636     1.374599
 H     1.336793     4.273355     2.413645
 C     1.909418     5.318424     0.613953
 C     1.687815     6.686575     1.190100
 H     2.251074     7.453550     0.639645
 H     1.989538     6.733878     2.247031
 H     0.621139     6.963568     1.143385
 C     2.293070    -0.849405     1.119651
 C     3.587193    -0.330179     1.065124
 H     3.820797     0.493762     0.393664
 C     1.999139    -1.897666     1.988895
 H     0.967446    -2.242869     2.056480
 C     4.583498    -0.907533     1.846521
 H     5.598966    -0.508293     1.777009
 C     3.006728    -2.452932     2.770657
 H     2.759663    -3.271718     3.452595
 C     4.322487    -1.980335     2.706503
 C     5.422764    -2.620084     3.502238
 H     5.976334    -3.354650     2.892374
 H     5.030086    -3.153388     4.380121
 H     6.153581    -1.876612     3.853618
