  96
scf done:    -2802.314307
 C    -1.408169    -2.946126    -1.587091
 H    -1.307113    -3.982470    -1.225173
 H    -2.463312    -2.686198    -1.385167
 C    -1.145720    -2.907442    -3.089126
 H    -0.127283    -3.250803    -3.330236
 H    -1.849515    -3.547150    -3.654202
 H    -1.237885    -1.888916    -3.506130
Ir     0.007711    -1.617746    -0.678147
 C    -2.918748     0.113146    -1.732803
 C    -2.918888    -1.005012     0.988706
 C    -1.572038     1.416426     0.516877
 C     2.071239     0.009061     1.684899
 C     3.336357    -0.430521    -0.920559
 C     1.455347     1.617802    -0.732987
 P     1.694214    -0.103845    -0.154564
 P    -1.817861    -0.227692    -0.257152
 C     1.021422    -3.087511    -0.194295
 O     1.540572    -3.995760     0.301516
 H    -2.431221     0.927570    -2.289115
 H    -2.811636    -0.789231    -2.350193
 C    -4.363972     0.390771    -1.464263
 C    -5.254895    -0.678981    -1.302275
 H    -4.885034    -1.702567    -1.403633
 C    -4.860830     1.691147    -1.316243
 H    -4.193128     2.545703    -1.439429
 C    -6.593847    -0.467389    -0.993039
 H    -7.288619    -1.298455    -0.860912
 C    -6.198224     1.922193    -1.002019
 H    -6.591635     2.933435    -0.884170
 C    -7.048688     0.836329    -0.839295
 F    -8.328894     1.050247    -0.534545
 C    -2.713707    -2.323637     1.399859
 H    -1.874228    -2.880939     0.977608
 C    -3.972659    -0.277380     1.563385
 H    -4.141057     0.762899     1.277453
 C    -3.556429    -2.908918     2.343749
 H    -3.377131    -3.942436     2.652281
 C    -4.808016    -0.867920     2.501688
 H    -5.626985    -0.284065     2.931180
 C    -4.619742    -2.197694     2.905648
 C    -5.534608    -2.824343     3.915995
 H    -5.237285    -3.856934     4.145372
 H    -5.537178    -2.253812     4.858274
 H    -6.573644    -2.844197     3.549993
 C    -1.672706     2.627261    -0.173011
 H    -1.931761     2.642908    -1.231859
 C    -1.198676     1.453778     1.866428
 H    -1.123633     0.520460     2.430841
 C    -1.420449     3.835634     0.468757
 H    -1.507550     4.767770    -0.096043
 C    -0.935305     2.664164     2.500317
 H    -0.648858     2.665496     3.555955
 C    -1.041703     3.879118     1.814068
 C    -0.720291     5.183602     2.480214
 H    -0.748125     5.098411     3.575662
 H     0.290826     5.525251     2.200041
 H    -1.422529     5.975132     2.179054
 H     1.504955     0.869406     2.069788
 H     1.584810    -0.891608     2.086502
 C     3.512377     0.050107     2.084380
 C     4.296101    -1.108288     1.978584
 H     3.833211    -2.041152     1.646360
 C     4.131182     1.227134     2.516436
 H     3.540391     2.139727     2.631504
 C     5.656178    -1.089187     2.262151
 H     6.271808    -1.985383     2.168995
 C     5.493734     1.265654     2.807394
 H     5.982915     2.181515     3.143801
 C     6.242055     0.105390     2.664953
 F     7.548759     0.135032     2.929500
 C     3.616215    -1.650182    -1.537784
 H     2.827787    -2.398525    -1.630976
 C     4.355432     0.532538    -0.857926
 H     4.160068     1.507604    -0.408055
 C     4.889659    -1.917561    -2.040859
 H     5.084660    -2.882722    -2.516252
 C     5.621553     0.259599    -1.354210
 H     6.402283     1.021779    -1.279196
 C     5.917212    -0.977169    -1.946748
 C     7.295570    -1.265221    -2.463438
 H     8.036661    -1.230240    -1.648774
 H     7.353375    -2.258079    -2.930561
 H     7.604906    -0.518474    -3.211762
 C     0.967643     1.767753    -2.038707
 H     0.705212     0.874244    -2.615126
 C     1.786208     2.763942    -0.010943
 H     2.164018     2.684969     1.009061
 C     0.821644     3.029490    -2.601662
 H     0.444802     3.122337    -3.624393
 C     1.638058     4.027572    -0.580991
 H     1.904676     4.912866     0.003418
 C     1.152742     4.185641    -1.881302
 C     0.953854     5.548292    -2.476524
 H     1.579401     6.302588    -1.978351
 H     1.192306     5.559061    -3.550271
 H    -0.095917     5.872912    -2.375133
