 100
scf done:    -3103.111380
 C    -0.712101    -3.657249    -1.126459
 H    -0.663130    -4.581345    -0.527496
 H    -1.790211    -3.453171    -1.245057
 C    -0.075381    -3.896629    -2.492046
 H     0.991078    -4.159607    -2.406464
 H    -0.574311    -4.715986    -3.041677
 H    -0.125928    -3.002571    -3.136596
Ir     0.347542    -2.037307    -0.191271
 C    -1.750330    -0.204646    -2.252349
 O    -3.002534    -1.317729    -0.204988
 O    -1.449441     0.663315     0.357896
 C     1.642019     0.768867     1.758431
 O     3.267305    -0.521571     0.120815
 O     1.399280     0.879604    -1.011866
 P     1.634432    -0.217927     0.213272
 P    -1.494789    -0.741241    -0.523042
 C     1.559378    -3.299360     0.521068
 O     2.207263    -4.063364     1.082516
 H    -0.744391     0.122284    -2.558120
 H    -1.956749    -1.146783    -2.788410
 C    -2.770170     0.853360    -2.531638
 C    -4.140602     0.589745    -2.416839
 H    -4.469780    -0.413668    -2.143819
 C    -2.364668     2.145512    -2.886718
 H    -1.300040     2.370100    -2.986726
 C    -5.082797     1.592468    -2.620291
 H    -6.152697     1.400083    -2.522323
 C    -3.296059     3.160176    -3.097646
 H    -2.987565     4.170800    -3.370817
 C    -4.647075     2.870342    -2.952713
 F    -5.545048     3.835501    -3.142285
 C    -3.427551    -1.972148     0.939679
 C    -2.647794    -2.938168     1.568903
 H    -1.654157    -3.162923     1.174014
 C    -4.704739    -1.633297     1.412558
 C    -5.548134    -0.619767     0.705794
 H    -4.990416     0.308781     0.519820
 H    -5.880860    -0.998312    -0.274301
 H    -6.441983    -0.377447     1.295771
 C    -3.128967    -3.574538     2.710881
 H    -2.510893    -4.328148     3.204001
 C    -5.156417    -2.285675     2.563440
 H    -6.144842    -2.027197     2.952718
 C    -4.383841    -3.245433     3.215409
 H    -4.766338    -3.737304     4.112559
 C    -2.435767     1.245291     1.125989
 C    -3.224420     2.251284     0.566350
 H    -3.080570     2.516877    -0.480276
 C    -2.565401     0.872447     2.471589
 C    -1.683675    -0.157198     3.111575
 H    -2.286442    -0.911793     3.637295
 H    -1.052647    -0.682946     2.382189
 H    -1.020106     0.315564     3.854017
 C    -4.185628     2.891567     1.341118
 H    -4.803548     3.674576     0.896227
 C    -3.554597     1.522974     3.220651
 H    -3.686227     1.234622     4.267088
 C    -4.358975     2.517258     2.672897
 H    -5.119092     3.003981     3.288022
 H     0.599773     1.107151     1.854814
 H     1.788318    -0.003583     2.532519
 C     2.601313     1.912140     1.926079
 C     3.984634     1.705517     1.997538
 H     4.378690     0.691525     1.928349
 C     2.118640     3.221228     2.042100
 H     1.042831     3.402898     2.002563
 C     4.863894     2.775700     2.137849
 H     5.943854     2.625140     2.187112
 C     2.983023     4.300936     2.182580
 H     2.610990     5.323990     2.254955
 C     4.350988     4.063904     2.217364
 F     5.188946     5.093726     2.339523
 C     3.785343    -1.462596    -0.733604
 C     3.282483    -1.637279    -2.023225
 H     2.462800    -1.007012    -2.371803
 C     4.839159    -2.247916    -0.245325
 C     5.337671    -2.056608     1.153412
 H     5.780375    -1.056859     1.288767
 H     4.515744    -2.147099     1.880483
 H     6.102276    -2.803673     1.404433
 C     3.829319    -2.617136    -2.849028
 H     3.427893    -2.758242    -3.854864
 C     5.372679    -3.216985    -1.098903
 H     6.189657    -3.844139    -0.732251
 C     4.877227    -3.409001    -2.387724
 H     5.309304    -4.180183    -3.028955
 C     1.552311     2.249716    -1.024283
 C     0.425799     3.029343    -0.767735
 H    -0.502555     2.522857    -0.507239
 C     2.782475     2.827832    -1.373778
 C     3.986822     1.993584    -1.677324
 H     4.397249     1.548414    -0.758672
 H     3.741655     1.159830    -2.350814
 H     4.772829     2.601541    -2.144750
 C     0.509868     4.417392    -0.827537
 H    -0.375846     5.022298    -0.618966
 C     2.836821     4.225230    -1.420145
 H     3.786923     4.698463    -1.681961
 C     1.724243     5.018875    -1.148736
 H     1.807527     6.106939    -1.196346
