 108
scf done:    -2161.451229
 C     1.438642    -0.657495    -3.119596
 H     2.273110    -0.057664    -3.499517
 H     1.668207    -1.726741    -3.069979
 C     0.093664    -0.246044    -3.438448
 H    -0.051384     0.655395    -4.043507
 H    -0.663114    -1.013830    -3.630140
 H    -0.035383    -1.449131    -1.172072
Ir     0.477430     0.106687    -1.351839
 C     1.351155    -1.525482     1.766564
 C     3.509910    -1.084774    -0.064484
 C     2.394057     1.127057     1.427873
 C    -1.838038     2.439296    -0.132400
 C    -3.020946     0.160172    -1.458357
 C    -1.961097    -0.199366     1.208837
 P    -1.587299     0.630761    -0.399906
 P     1.893884    -0.354793     0.446621
 C     1.087506     1.894860    -1.588898
 O     1.464502     2.978334    -1.706259
 H     2.193152    -1.672542     2.464097
 H     0.561029    -1.004743     2.332321
 C     0.834680    -2.866935     1.270936
 H     0.074691    -2.693286     0.490798
 H     1.647086    -3.418965     0.766718
 C     0.250193    -3.724869     2.384018
 H    -0.542228    -3.153112     2.902070
 H     1.022251    -3.920814     3.150475
 C    -0.325109    -5.045752     1.893164
 H    -1.083577    -4.841075     1.116703
 H     0.469377    -5.620468     1.385396
 C    -0.940845    -5.885349     3.000303
 H    -1.346027    -6.833405     2.615433
 H    -1.766056    -5.347502     3.494615
 H    -0.198355    -6.131333     3.776557
 H     3.250690    -1.976329    -0.659714
 H     4.056439    -1.433930     0.827466
 C     4.344109    -0.126883    -0.903041
 H     3.679892     0.355498    -1.639203
 H     4.739964     0.684553    -0.264682
 C     5.511768    -0.777231    -1.647173
 H     5.086697    -1.574163    -2.286186
 C     6.188683     0.240192    -2.557807
 H     5.472102     0.680727    -3.268246
 H     7.003579    -0.218204    -3.139422
 H     6.623463     1.065413    -1.968917
 C     6.518790    -1.419049    -0.699422
 H     7.355983    -1.871188    -1.253690
 H     6.063387    -2.211339    -0.086169
 H     6.943140    -0.666085    -0.013178
 H     1.455232     1.554355     1.821515
 H     2.750936     1.850316     0.677981
 C     3.413713     0.942504     2.541337
 H     3.001941     0.268708     3.311239
 H     4.316060     0.439369     2.149237
 C     3.848955     2.245976     3.220073
 H     2.933255     2.761585     3.567006
 C     4.709301     1.944744     4.441933
 H     4.177520     1.304560     5.163234
 H     5.004640     2.867857     4.964257
 H     5.633652     1.419214     4.148744
 C     4.579545     3.179535     2.260603
 H     4.890551     4.105224     2.768819
 H     3.956023     3.470791     1.402321
 H     5.489047     2.696351     1.864737
 H    -0.969487     2.770337     0.461833
 H    -1.682224     2.877655    -1.133731
 C    -3.131996     2.959716     0.476258
 H    -4.003590     2.527006    -0.044124
 H    -3.212262     2.628818     1.524521
 C    -3.230135     4.479245     0.430217
 H    -3.165162     4.816595    -0.620194
 H    -2.350854     4.917226     0.936868
 C    -4.502992     5.026950     1.060540
 H    -5.377505     4.580400     0.554588
 H    -4.561875     4.687531     2.110110
 C    -4.599847     6.543028     1.007020
 H    -5.529066     6.908226     1.469975
 H    -4.580353     6.907781    -0.032550
 H    -3.756473     7.015948     1.535515
 H    -2.855575     0.678596    -2.417824
 H    -3.950908     0.562569    -1.025269
 C    -3.119213    -1.341353    -1.686649
 H    -2.137392    -1.702765    -2.031408
 H    -3.309116    -1.856816    -0.727731
 C    -4.196731    -1.769760    -2.684603
 H    -4.000052    -1.235544    -3.633364
 C    -4.090337    -3.265499    -2.958475
 H    -3.090224    -3.534214    -3.332222
 H    -4.830640    -3.593663    -3.704619
 H    -4.267531    -3.844938    -2.036575
 C    -5.600901    -1.401433    -2.217633
 H    -6.362076    -1.733689    -2.940572
 H    -5.724324    -0.315740    -2.086698
 H    -5.828501    -1.883573    -1.251163
 H    -1.275208     0.253651     1.944577
 H    -1.582978    -1.221210     1.050326
 C    -3.384103    -0.240693     1.755685
 H    -3.639702     0.732782     2.200721
 H    -4.112626    -0.396566     0.941561
 C    -3.600951    -1.338145     2.805253
 H    -2.763225    -1.280430     3.526513
 C    -4.897400    -1.100239     3.570511
 H    -4.892751    -0.124105     4.080157
 H    -5.065075    -1.877887     4.331759
 H    -5.762006    -1.114465     2.885836
 C    -3.592675    -2.730424     2.182560
 H    -3.678683    -3.512869     2.952291
 H    -2.671909    -2.930836     1.614639
 H    -4.442633    -2.849940     1.489884
