  80
scf done:    -2442.972788
 C     0.864711     2.900658     2.797249
 H     0.822497     3.947677     2.480278
 H     0.177506     2.667279     3.616126
 C     2.118502     2.197804     2.718188
 H     2.995547     2.742616     2.351413
 H     2.360966     1.446056     3.474384
 H     0.279362     0.439540     2.373445
Ir     0.782245     1.461565     1.194336
 C    -2.679274     1.650508     1.755622
 O    -1.773472     2.277546    -0.747570
 O    -1.855623    -0.172778    -0.072098
 C     1.345429    -0.590047    -1.607714
 O     3.134701    -0.935948     0.378859
 O     0.834621    -1.796430     0.781692
 P     1.548572    -0.436274     0.192284
 P    -1.376124     1.305348     0.539992
 C     1.409197     2.705715    -0.143647
 O     1.777523     3.437549    -0.943785
 H    -2.547318     0.962821     2.602379
 H    -2.518379     2.678019     2.111134
 H    -3.691513     1.535773     1.344131
 C    -2.961904     2.178688    -1.423742
 C    -4.058970     2.947720    -1.039855
 H    -3.962579     3.631409    -0.194496
 C    -3.064189     1.319137    -2.517736
 H    -2.196621     0.723570    -2.804773
 C    -5.257856     2.839688    -1.741429
 H    -6.114009     3.444317    -1.429858
 C    -4.266545     1.224484    -3.210958
 H    -4.337720     0.543444    -4.063596
 C    -5.387386     1.976863    -2.835407
 C    -6.672259     1.886095    -3.606513
 H    -7.533763     2.183641    -2.991754
 H    -6.850876     0.864817    -3.973945
 H    -6.652578     2.549738    -4.487179
 C    -2.785005    -1.002420     0.504398
 C    -4.096148    -1.015720     0.034469
 H    -4.382337    -0.340922    -0.774785
 C    -2.396767    -1.853575     1.540461
 H    -1.358203    -1.832029     1.877929
 C    -5.017982    -1.890291     0.607838
 H    -6.046458    -1.896880     0.236331
 C    -3.332146    -2.716561     2.101288
 H    -3.021405    -3.382656     2.911122
 C    -4.657795    -2.753760     1.647649
 C    -5.648891    -3.706131     2.251815
 H    -6.672896    -3.488569     1.917019
 H    -5.633710    -3.657882     3.351540
 H    -5.421267    -4.747765     1.971544
 H     1.896536     0.232623    -2.085945
 H     1.709523    -1.553572    -1.990675
 H     0.273577    -0.475760    -1.823908
 C     4.154003    -0.299725    -0.279901
 C     4.576316     0.972586     0.109388
 H     4.073549     1.462595     0.944013
 C     4.784247    -0.950965    -1.338654
 H     4.444108    -1.948574    -1.624497
 C     5.620291     1.586863    -0.574852
 H     5.940769     2.586337    -0.267412
 C     5.834751    -0.325094    -2.006340
 H     6.325979    -0.843900    -2.834241
 C     6.269719     0.953870    -1.642728
 C     7.408225     1.624715    -2.355647
 H     7.155806     2.660678    -2.629424
 H     7.680062     1.087828    -3.275406
 H     8.306855     1.668447    -1.718446
 C     0.950477    -3.028380     0.180414
 C     2.086931    -3.810968     0.378752
 H     2.900403    -3.418044     0.989104
 C    -0.102360    -3.500212    -0.601072
 H    -0.982517    -2.871108    -0.742512
 C     2.160474    -5.068555    -0.214349
 H     3.055079    -5.678087    -0.058238
 C    -0.012253    -4.761669    -1.183243
 H    -0.842170    -5.125775    -1.795202
 C     1.116642    -5.569334    -1.002262
 C     1.193261    -6.941903    -1.606019
 H     2.227619    -7.212099    -1.864506
 H     0.582657    -7.016586    -2.517490
 H     0.823626    -7.705640    -0.901187
