  96
scf done:    -2004.313816
 C     0.891635    -0.660226    -2.970255
 H     0.473512    -1.575804    -3.402735
 H     0.718226     0.225137    -3.591647
 C     2.117851    -0.744815    -2.219814
 H     2.596025    -1.722890    -2.103533
 H     2.839298     0.075883    -2.284615
 H     0.801249     1.215611    -1.225092
Ir     0.469258    -0.358742    -0.884105
 C    -1.904307     1.654806    -2.420448
 C    -3.006002    -0.863490    -1.400590
 C    -2.464847     1.281454     0.453787
 C     0.167872     0.177779     2.706223
 C     2.706032    -0.877380     1.871847
 C     2.009869     1.886095     1.310369
 P     1.321978     0.176729     1.231672
 P    -1.740887     0.424572    -1.015959
 C     0.208054    -2.205736    -0.499786
 O     0.108989    -3.329853    -0.258665
 H    -1.175753     1.255041    -3.144160
 C    -3.260957     1.730758    -3.112183
 H    -3.213387     2.465317    -3.932719
 H    -3.557142     0.769721    -3.555552
 H    -4.064943     2.052802    -2.433742
 C    -1.411563     3.030753    -1.985143
 H    -0.435713     2.963451    -1.481091
 H    -1.291464     3.685156    -2.863026
 H    -2.123921     3.523985    -1.304863
 H    -3.960108    -0.387109    -1.676942
 H    -2.632041    -1.382457    -2.299225
 C    -3.229996    -1.861625    -0.273930
 H    -2.262931    -2.265780     0.062417
 H    -3.665464    -1.346657     0.600578
 C    -4.134330    -3.020817    -0.668671
 H    -3.702801    -3.531508    -1.548381
 H    -5.115742    -2.632302    -0.997589
 C    -4.334787    -4.031670     0.451679
 H    -3.347860    -4.411638     0.769353
 H    -4.754494    -3.515695     1.333803
 C    -5.232575    -5.195278     0.064019
 H    -5.355561    -5.908229     0.893358
 H    -4.817557    -5.750593    -0.792443
 H    -6.236854    -4.846707    -0.226762
 H    -2.344683     0.562570     1.279774
 H    -1.774224     2.109400     0.685500
 C    -3.903267     1.776652     0.408557
 H    -4.009218     2.566787    -0.352660
 H    -4.575318     0.960355     0.091901
 C    -4.376533     2.315099     1.752629
 H    -3.701918     3.128329     2.077529
 H    -4.276162     1.522556     2.516898
 C    -5.811166     2.823752     1.737069
 H    -5.905705     3.614462     0.971702
 H    -6.479210     2.008670     1.406330
 C    -6.278790     3.354969     3.082332
 H    -7.317932     3.714620     3.039087
 H    -5.650215     4.194461     3.420638
 H    -6.229060     2.574761     3.858938
 H    -0.513731     1.015943     2.479737
 C    -0.650951    -1.106244     2.743860
 H    -1.400234    -1.065173     3.550738
 H    -1.173748    -1.278539     1.793403
 H    -0.015069    -1.986488     2.932598
 C     0.833118     0.444953     4.052198
 H     1.421185     1.373992     4.062227
 H     0.067295     0.535775     4.839560
 H     1.499628    -0.380871     4.344554
 H     3.277749    -0.282233     2.605095
 H     2.237482    -1.699935     2.439455
 C     3.629020    -1.462707     0.814858
 H     3.037356    -2.104579     0.144169
 H     4.024219    -0.662495     0.167954
 C     4.782082    -2.258719     1.408261
 H     4.380457    -3.055255     2.061746
 H     5.382699    -1.606524     2.069315
 C     5.688138    -2.880118     0.354390
 H     5.082319    -3.528795    -0.302538
 H     6.080417    -2.081100    -0.299415
 C     6.842469    -3.677133     0.939818
 H     7.477151    -4.112614     0.153116
 H     6.477654    -4.505391     1.568684
 H     7.485258    -3.044111     1.572945
 H     1.164009     2.546185     1.052003
 H     2.302121     2.119486     2.347661
 C     3.172973     2.142125     0.364078
 H     4.053165     1.562728     0.692788
 H     2.907410     1.761996    -0.636152
 C     3.550216     3.613399     0.267306
 H     3.787397     4.005891     1.273541
 H     2.671846     4.188692    -0.078831
 C     4.723189     3.874693    -0.667135
 H     5.598528     3.298750    -0.317674
 H     4.482191     3.471188    -1.666393
 C     5.090642     5.345144    -0.782116
 H     5.940820     5.500556    -1.463546
 H     5.368801     5.765811     0.197837
 H     4.245012     5.938991    -1.165158
