  82
scf done:    -2617.516224
 C    -0.280553    -2.537170    -1.630308
 H    -0.908227    -3.283457    -1.131422
 H    -0.627051    -2.290735    -2.638981
 C     1.127612    -2.533421    -1.345181
 H     1.528955    -3.256379    -0.629040
 H     1.830325    -2.278553    -2.144209
 H     0.501293    -0.131253    -1.912239
Ir     0.207331    -0.805369    -0.440295
 C    -1.222293     2.431782    -0.964971
 C    -2.936048     0.302255    -1.693540
 C    -2.452643     0.912651     1.152639
 C     1.796245     2.059815     1.098219
 C     3.161855    -0.427094     1.539968
 C     3.213333     0.771902    -1.131965
 P     2.063392     0.407930     0.288866
 P    -1.582577     0.685843    -0.477597
 C    -0.251565    -1.616799     1.222120
 O    -0.592173    -2.080823     2.221678
 H    -0.618494     2.857092    -0.147912
 C    -0.503367     2.590505    -2.293587
 H    -1.094580     2.187043    -3.129694
 H     0.456927     2.055424    -2.291214
 H    -2.178632     2.979694    -0.972700
 H    -0.312891     3.653667    -2.507117
 H    -3.456353     1.242901    -1.933671
 H    -2.401356    -0.016662    -2.604479
 C    -3.952476    -0.729272    -1.287248
 C    -3.605157    -1.894179    -0.592385
 H    -2.555116    -2.077471    -0.356230
 C    -5.302867    -0.523777    -1.596931
 H    -5.599158     0.383492    -2.129757
 C    -4.573227    -2.815530    -0.199538
 H    -4.307168    -3.721112     0.348733
 C    -6.282631    -1.438672    -1.221677
 H    -7.336067    -1.279952    -1.459351
 C    -5.903753    -2.575647    -0.518480
 F    -6.835293    -3.452622    -0.145617
 H    -2.694185    -0.103916     1.496012
 H    -1.662948     1.284075     1.826123
 C    -3.666463     1.789791     1.196644
 C    -3.557201     3.184437     1.289994
 H    -2.569061     3.644790     1.365365
 C    -4.951463     1.232692     1.154473
 H    -5.065729     0.147882     1.111264
 C    -4.684220     4.001720     1.308503
 H    -4.603972     5.087559     1.384601
 C    -6.089382     2.034148     1.170586
 H    -7.090727     1.601209     1.136484
 C    -5.941024     3.413383     1.239095
 F    -7.024870     4.188368     1.252635
 H     0.850570     1.938587     1.651440
 C     2.865092     2.644346     2.011468
 H     3.829760     2.773145     1.502953
 H     3.031285     2.014745     2.897491
 H     1.570373     2.750340     0.268665
 H     2.549064     3.634731     2.374591
 H     4.095917     0.150899     1.620579
 H     2.634023    -0.317411     2.500152
 C     3.431103    -1.877499     1.273808
 C     2.706932    -2.867749     1.948531
 H     1.959771    -2.578370     2.690018
 C     4.388394    -2.289944     0.338659
 H     4.985322    -1.548070    -0.195530
 C     2.910995    -4.220256     1.691900
 H     2.343952    -4.992074     2.215117
 C     4.607828    -3.637748     0.067367
 H     5.352203    -3.961023    -0.662203
 C     3.858931    -4.589893     0.746244
 F     4.062197    -5.881653     0.493836
 H     3.616776    -0.208613    -1.426719
 H     2.542019     1.075076    -1.947470
 C     4.279842     1.796550    -0.911267
 C     4.038309     3.138253    -1.239491
 H     3.089791     3.411125    -1.710000
 C     5.519233     1.475454    -0.341023
 H     5.753947     0.436896    -0.098460
 C     4.976937     4.132006    -0.979693
 H     4.791205     5.177241    -1.233181
 C     6.471503     2.455652    -0.073094
 H     7.437142     2.208759     0.371600
 C     6.183594     3.777701    -0.388187
 F     7.087231     4.721428    -0.132994
