  76
scf done:    -2142.193467
 C    -0.438225    -3.381468    -1.260107
 H    -1.219285    -4.002761    -0.807384
 H    -0.561535    -3.260042    -2.340694
 C     0.890607    -3.445941    -0.708626
 H     1.066112    -4.108024     0.146799
 H     1.753206    -3.366519    -1.377218
 H     0.658697    -1.110792    -1.689130
Ir     0.015953    -1.541399    -0.236205
 C    -1.756147     0.409617    -2.554243
 C    -3.400582    -0.557856    -0.447529
 C    -1.653048     1.604124     0.062818
 C     1.604415     0.205183     2.411017
 C     3.392093    -0.672522     0.410280
 C     1.712938     1.570141    -0.122714
 P     1.655827    -0.108696     0.604688
 P    -1.674697    -0.022917    -0.778009
 C    -0.681619    -2.076405     1.459357
 O    -1.081656    -2.370690     2.498189
 H    -0.812062     0.883703    -2.856402
 H    -1.861882    -0.533424    -3.107556
 H    -2.607671     1.067438    -2.781536
 C    -4.452782     0.365962    -0.389700
 H    -4.247093     1.434416    -0.499003
 C    -3.690267    -1.914472    -0.289002
 H    -2.871361    -2.636017    -0.332023
 C    -5.757877    -0.063722    -0.179218
 H    -6.565725     0.672494    -0.134223
 C    -5.001230    -2.338707    -0.081421
 H    -5.206925    -3.405952     0.039312
 C    -6.056596    -1.424028    -0.018887
 C    -7.463626    -1.875057     0.242444
 H    -8.187520    -1.305887    -0.359752
 H    -7.593657    -2.943104     0.017666
 H    -7.733465    -1.725109     1.301212
 C    -1.545287     2.824860    -0.605863
 H    -1.486063     2.856813    -1.694891
 C    -1.718087     1.613869     1.462917
 H    -1.812038     0.667208     2.003559
 C    -1.493581     4.021090     0.107970
 H    -1.399189     4.964656    -0.436977
 C    -1.671735     2.809846     2.168296
 H    -1.730301     2.793145     3.260529
 C    -1.549087     4.038054     1.503308
 C    -1.436232     5.323493     2.268209
 H    -2.012360     5.290776     3.204490
 H    -0.385905     5.526163     2.539642
 H    -1.790664     6.179349     1.675838
 H     1.642064    -0.771628     2.912884
 H     2.455481     0.813097     2.749792
 H     0.656214     0.696249     2.671793
 C     3.682262    -2.021887     0.643993
 H     2.863514    -2.708487     0.871503
 C     4.442533     0.193917     0.092991
 H     4.241908     1.251496    -0.093780
 C     4.990246    -2.487465     0.571464
 H     5.194856    -3.545023     0.761674
 C     5.749151    -0.283263     0.008572
 H     6.556810     0.409055    -0.246006
 C     6.048111    -1.628677     0.245387
 C     7.450974    -2.147654     0.124973
 H     8.189386    -1.335884     0.190057
 H     7.677327    -2.882208     0.912297
 H     7.601090    -2.654159    -0.843131
 C     1.752767     2.737254     0.643772
 H     1.743508     2.685939     1.733414
 C     1.720820     1.690285    -1.519074
 H     1.686215     0.784142    -2.129820
 C     1.792131     3.987922     0.030348
 H     1.813067     4.887572     0.652075
 C     1.768361     2.940407    -2.124407
 H     1.780168     3.008630    -3.216188
 C     1.796594     4.115139    -1.360755
 C     1.786924     5.464280    -2.016471
 H     2.327446     5.453438    -2.974229
 H     0.753849     5.788106    -2.230328
 H     2.242170     6.230599    -1.372727
