  84
scf done:    -1847.197181
 C    -0.515787    -3.176717    -0.496732
 H    -1.427229    -3.591567    -0.052007
 H    -0.472852    -3.304250    -1.583041
 C     0.711205    -3.233495     0.259552
 H     0.694765    -3.685655     1.257006
 H     1.651851    -3.408092    -0.272789
 H     0.879683    -1.134226    -1.236185
Ir     0.012623    -1.200201     0.167730
 C    -0.801715     1.083372    -2.425661
 C    -2.970381    -0.533679    -1.564775
 C    -2.079146     1.667806     0.098430
 C     1.447235     0.890373     2.645477
 C     3.330236    -0.682237     1.196721
 C     2.131387     1.639993    -0.049675
 P     1.709520     0.167935     0.979810
 P    -1.439395     0.262488    -0.916788
 C    -0.969179    -1.282481     1.798846
 O    -1.554052    -1.292130     2.792307
 H     0.068966     1.700900    -2.166051
 H    -0.464838     0.300587    -3.119459
 H    -1.562392     1.706887    -2.918894
 H    -3.547786     0.195754    -2.159388
 H    -2.614982    -1.311140    -2.262027
 C    -3.831938    -1.162840    -0.481331
 H    -3.199367    -1.825144     0.132968
 H    -4.207873    -0.380852     0.202810
 C    -5.010733    -1.952732    -1.031886
 H    -4.632883    -2.739498    -1.709888
 H    -5.639384    -1.293655    -1.658750
 C    -5.869681    -2.590146     0.051241
 H    -5.234289    -3.242300     0.675942
 H    -6.241352    -1.801068     0.728999
 C    -7.041480    -3.387953    -0.497274
 H    -7.642141    -3.835690     0.308949
 H    -6.696453    -4.207103    -1.148655
 H    -7.712178    -2.752328    -1.097977
 H    -2.430584     1.216424     1.041808
 H    -1.187586     2.258454     0.373293
 C    -3.152673     2.562556    -0.501839
 H    -2.804519     2.981825    -1.461898
 H    -4.047007     1.961802    -0.741229
 C    -3.557406     3.704851     0.421196
 H    -2.666606     4.314103     0.660756
 H    -3.901051     3.288589     1.385626
 C    -4.642352     4.601977    -0.157982
 H    -4.295631     5.011175    -1.123640
 H    -5.528792     3.987806    -0.396580
 C    -5.042535     5.740501     0.766315
 H    -5.827605     6.369778     0.320518
 H    -4.183173     6.391947     0.993212
 H    -5.426918     5.359299     1.726064
 H     1.256942     0.071542     3.354145
 H     2.309148     1.476940     2.997257
 H     0.552443     1.529481     2.623199
 H     4.031508    -0.021222     1.735714
 H     3.114969    -1.536721     1.860077
 C     3.936740    -1.176812    -0.107858
 H     3.160936    -1.713275    -0.679020
 H     4.231810    -0.315381    -0.733642
 C     5.143470    -2.081465     0.096928
 H     4.842700    -2.949119     0.711911
 H     5.912710    -1.548796     0.686178
 C     5.756740    -2.576158    -1.205540
 H     4.981315    -3.102250    -1.789794
 H     6.052695    -1.706679    -1.819384
 C     6.954014    -3.490282    -1.001855
 H     7.374048    -3.831306    -1.960296
 H     6.677653    -4.386103    -0.422717
 H     7.758690    -2.978570    -0.449305
 H     2.261139     1.251034    -1.073321
 H     1.212253     2.250819    -0.077273
 C     3.324340     2.490003     0.360218
 H     3.193519     2.856390     1.393159
 H     4.237937     1.871131     0.372488
 C     3.545220     3.680171    -0.564573
 H     2.633359     4.305069    -0.579522
 H     3.673344     3.316344    -1.600396
 C     4.740741     4.540502    -0.179767
 H     4.609547     4.898704     0.856825
 H     5.648090     3.910917    -0.164143
 C     4.955808     5.725241    -1.107514
 H     5.825939     6.326857    -0.804279
 H     4.077773     6.391080    -1.115481
 H     5.125516     5.394436    -2.144820
