  88
scf done:    -2147.968454
 C     0.383174    -1.198287    -3.407771
 H     1.096006    -0.613206    -3.998930
 H     0.554083    -2.276827    -3.471273
 C    -0.961658    -0.706018    -3.267043
 H    -1.235868     0.241228    -3.741727
 H    -1.787931    -1.421602    -3.224257
 H    -0.458684    -2.023335    -1.144612
Ir     0.065705    -0.490589    -1.387559
 C     1.623647    -2.913598     0.621853
 O     3.301386    -1.296186    -0.657699
 O     2.009730    -0.255475     1.308644
 C    -1.081822     0.941769     1.692938
 O    -2.618103     1.171530    -0.625269
 O    -2.534018    -1.022471     0.721936
 P    -1.558008     0.146836     0.099194
 P     1.777975    -1.193667    -0.035834
 C     0.668884     1.287127    -1.790722
 O     1.022498     2.347732    -2.055229
 H     1.240853    -3.438377    -0.270731
 C     2.917394    -3.593027     1.054200
 H     2.728542    -4.664359     1.229595
 H     3.694563    -3.499673     0.284183
 H     3.313979    -3.176214     1.990983
 C     0.540441    -2.950367     1.695563
 H    -0.389405    -2.468790     1.357754
 H     0.304676    -3.992164     1.963559
 H     0.869739    -2.436928     2.612441
 C     3.710316    -0.467082    -1.737626
 H     4.516291    -1.017504    -2.249027
 H     2.868862    -0.361801    -2.442648
 C     4.197890     0.894218    -1.282715
 H     4.336137     1.520749    -2.181448
 H     3.397054     1.382101    -0.700358
 C     5.487736     0.865195    -0.475477
 H     6.288037     0.419204    -1.092257
 H     5.362813     0.185700     0.383548
 C     5.918826     2.238376     0.012481
 H     6.081153     2.929819    -0.829977
 H     5.150789     2.689989     0.660855
 H     6.854672     2.190769     0.589710
 C     3.090693    -0.430456     2.213160
 H     2.832462    -1.214184     2.948506
 H     3.984616    -0.765626     1.664454
 C     3.355312     0.877877     2.923946
 H     4.304394     0.787461     3.480911
 H     3.515692     1.657396     2.159274
 C     2.234795     1.293284     3.866255
 H     2.152346     0.547810     4.677157
 H    -0.299545     0.247509     2.047486
 C     2.424663     2.680683     4.454880
 H     3.368594     2.754839     5.018922
 H     2.455338     3.445980     3.662450
 H     1.606221     2.946181     5.141287
 H     1.282174     1.249650     3.316485
 C    -0.412069     2.280401     1.399674
 H    -0.108102     2.766259     2.339688
 H     0.489924     2.148870     0.786476
 H    -1.090960     2.966893     0.871125
 C    -2.169729     1.039441     2.754761
 H    -2.670589     0.074269     2.909332
 H    -1.721131     1.351168     3.711885
 H    -2.932288     1.789564     2.498117
 C    -3.917591     1.502247    -0.158591
 H    -4.626582     1.191301    -0.946100
 H    -4.166594     0.927203     0.747465
 C    -4.045104     2.992075     0.084519
 H    -5.085150     3.197411     0.395239
 H    -3.409256     3.279430     0.940059
 C    -3.680851     3.840402    -1.125536
 H    -4.341207     3.569820    -1.968471
 H    -2.661090     3.573130    -1.447175
 C    -3.769939     5.333059    -0.855598
 H    -4.787988     5.629958    -0.554908
 H    -3.087882     5.632249    -0.043138
 H    -3.501199     5.921743    -1.745594
 C    -3.153016    -1.977008    -0.128043
 H    -3.760918    -1.454156    -0.889464
 H    -2.374469    -2.545483    -0.664458
 C    -4.020177    -2.883867     0.714152
 H    -4.433914    -3.665505     0.053235
 H    -3.379159    -3.404420     1.447119
 C    -5.149225    -2.162382     1.437014
 H    -5.773424    -1.634927     0.693379
 H    -4.713845    -1.377513     2.077370
 C    -6.015432    -3.089652     2.273136
 H    -6.486946    -3.868252     1.651840
 H    -5.419343    -3.602934     3.044805
 H    -6.820210    -2.541510     2.785967
