  92
scf done:    -4437.981369
 C     1.336435    -1.399111    -3.279825
 H     1.309761    -0.894717    -4.250453
 H     2.346754    -1.611972    -2.920515
 C     0.261157    -2.269178    -2.912341
 H    -0.573441    -2.418589    -3.603562
 H     0.470558    -3.137194    -2.281377
 H     1.152762    -1.227845    -0.764530
Ir     0.123497    -0.444608    -1.752248
 C     0.754030     3.074827    -1.316930
 O     1.041135     1.349744     0.770279
 O     2.821446     1.510802    -1.116605
 C    -2.646538     0.332134     0.441079
 O    -2.280672    -2.243106    -0.385309
 O    -0.786383    -1.132105     1.434338
 P    -1.386512    -0.867331    -0.098911
 P     1.179909     1.356232    -0.893471
 C    -0.977893     0.454394    -3.058712
 O    -1.591507     1.000803    -3.860596
 H     1.483605     3.750376    -0.842175
 H     0.907356     3.147735    -2.406662
 C    -0.675926     3.434942    -0.939010
 H    -1.365330     2.669280    -1.332955
 H    -0.783233     3.406398     0.159024
 C    -1.102059     4.803014    -1.451679
 H    -0.966334     4.838747    -2.547626
 H    -0.429740     5.576053    -1.038125
 C    -2.545488     5.145394    -1.111376
 H    -3.206630     4.372003    -1.539568
 H    -2.683133     5.084535    -0.016970
 C    -2.978669     6.515286    -1.606194
 H    -4.028606     6.723938    -1.350576
 H    -2.881793     6.592892    -2.700939
 H    -2.362860     7.314517    -1.163651
 C     1.406155     2.318093     1.657448
 C     0.507183     2.593230     2.691691
 H    -0.438069     2.047345     2.723128
 C     2.631441     2.986941     1.599140
 H     3.336435     2.757943     0.799705
 C     0.822189     3.537874     3.661887
 H     0.126147     3.757239     4.473022
 C     2.943702     3.938634     2.566989
 H     3.897332     4.467774     2.531178
 C     2.041079     4.212743     3.592716
Cl     2.436677     5.395548     4.794388
 C     3.675066     0.439448    -1.181832
 C     4.497670     0.326802    -2.300733
 H     4.417795     1.072239    -3.093597
 C     3.745679    -0.499771    -0.153319
 H     3.095423    -0.408849     0.718041
 C     5.395170    -0.731388    -2.398204
 H     6.042767    -0.835018    -3.270073
 C     4.638535    -1.563656    -0.250048
 H     4.703195    -2.307599     0.545255
 C     5.456883    -1.675112    -1.372788
Cl     6.566338    -3.000759    -1.495694
 H    -3.164549    -0.080693     1.321816
 H    -2.062104     1.200822     0.786528
 C    -3.627103     0.735849    -0.647993
 H    -3.075848     1.054263    -1.547936
 H    -4.224666    -0.138774    -0.954648
 C    -4.553423     1.859970    -0.207179
 H    -3.944113     2.709846     0.149490
 H    -5.146472     1.528935     0.664127
 C    -5.486690     2.340152    -1.309075
 H    -4.884229     2.636720    -2.186443
 H    -6.110094     1.495224    -1.650521
 C    -6.374506     3.497816    -0.882855
 H    -7.041322     3.819525    -1.696834
 H    -5.772797     4.370647    -0.581168
 H    -7.006735     3.222091    -0.023680
 C    -3.382758    -2.655667     0.312640
 C    -4.541491    -2.929288    -0.416695
 H    -4.526248    -2.788136    -1.499018
 C    -3.365666    -2.845354     1.696541
 H    -2.455861    -2.640363     2.260727
 C    -5.685647    -3.382405     0.230675
 H    -6.594768    -3.600210    -0.331960
 C    -4.512591    -3.293770     2.346874
 H    -4.510987    -3.444997     3.427474
 C    -5.668222    -3.557872     1.614283
Cl    -7.093058    -4.114469     2.427064
 C     0.359712    -1.813705     1.718425
 C     1.222665    -1.266214     2.667288
 H     0.969875    -0.308837     3.124411
 C     0.661633    -3.034313     1.111204
 H    -0.022389    -3.455671     0.372263
 C     2.396799    -1.931586     3.004767
 H     3.083749    -1.509291     3.739777
 C     1.841373    -3.695820     1.438211
 H     2.097348    -4.641611     0.958588
 C     2.704456    -3.139570     2.379902
Cl     4.191986    -3.947209     2.762662
