  72
scf done:    -1690.027677
 C     0.790291    -2.621263     1.270702
 H     1.375903    -3.294967     0.636096
 H     1.285626    -2.389890     2.219957
 C    -0.641923    -2.718707     1.243804
 H    -1.103015    -3.454154     0.577051
 H    -1.200757    -2.578992     2.173894
 H    -0.083293    -0.275471     1.800566
Ir    -0.023720    -0.889177     0.275494
 C     2.541603     0.840903     1.823826
 C     3.460540    -0.863735    -0.389290
 C     2.114517     1.769810    -1.018785
 C    -1.655798     1.977737    -1.082359
 C    -3.280800    -0.492102    -1.095437
 C    -2.747549     0.994495     1.512719
 P    -1.971623     0.404337    -0.085826
 P     2.043741     0.272506     0.104817
 C    -0.085525    -1.540036    -1.511494
 O    -0.196804    -1.875025    -2.611616
 H     2.226682    -0.045136     2.401543
 C     4.014455     1.087600     2.132551
 H     4.119354     1.321863     3.204653
 H     4.638225     0.205343     1.935451
 H     4.434544     1.936916     1.574853
 C     1.672527     2.003774     2.288461
 H     0.607224     1.762605     2.168793
 H     1.853730     2.205494     3.356149
 H     1.888844     2.933208     1.739089
 H     3.636644    -1.406149     0.557970
 C     3.064902    -1.901145    -1.435478
 H     3.918810    -2.569609    -1.631564
 H     2.221354    -2.514633    -1.101343
 H     2.785339    -1.435383    -2.391855
 C     4.764982    -0.194000    -0.819499
 H     5.111466     0.588161    -0.135285
 H     5.560806    -0.953846    -0.884969
 H     4.668066     0.250484    -1.821078
 H     1.195344     2.284228    -0.704488
 C     3.255969     2.772046    -0.877829
 H     3.046424     3.649990    -1.511851
 H     3.367850     3.137488     0.151627
 H     4.222514     2.364251    -1.200203
 C     1.912434     1.351915    -2.472629
 H     1.092898     0.626734    -2.580847
 H     1.670190     2.232087    -3.090082
 H     2.820300     0.897396    -2.897335
 H    -0.844638     1.618553    -1.737085
 C    -2.740396     2.544850    -1.991824
 H    -2.311697     3.365008    -2.591438
 H    -3.133037     1.800408    -2.697930
 H    -3.587760     2.967083    -1.431720
 C    -1.072208     3.068958    -0.189835
 H    -0.337036     2.668204     0.520374
 H    -0.569451     3.835248    -0.801720
 H    -1.851271     3.581087     0.392906
 H    -2.882217    -0.373902    -2.120546
 C    -3.339591    -1.988547    -0.802483
 H    -4.089832    -2.459401    -1.458211
 H    -2.377771    -2.483440    -0.968939
 H    -3.633040    -2.186267     0.239081
 C    -4.696947     0.078493    -1.053368
 H    -4.746638     1.164382    -1.186779
 H    -5.301325    -0.383256    -1.851093
 H    -5.186463    -0.168849    -0.099694
 H    -1.878190     1.497004     1.971158
 C    -3.892935     2.002480     1.442541
 H    -4.023856     2.468344     2.433040
 H    -3.720471     2.812099     0.722338
 H    -4.846378     1.523599     1.185887
 C    -3.116601    -0.174358     2.418520
 H    -2.275427    -0.869233     2.532468
 H    -3.398995     0.199176     3.416030
 H    -3.978183    -0.734710     2.023267
