  88
scf done:    -2299.328112
 C    -0.130566    -3.117244    -1.503798
 H     0.124850    -3.155174    -2.568097
 H     0.523992    -3.736392    -0.881382
 C    -1.506576    -2.959415    -1.121385
 H    -2.263016    -2.882307    -1.907835
 H    -1.876463    -3.444605    -0.214311
 H    -0.138658    -1.857393     0.724717
Ir    -0.425743    -1.133764    -0.723133
 C     2.962508    -1.358763    -1.491939
 C     2.052234     1.355202    -1.281259
 C     2.506779    -0.254955     1.169783
 C    -1.162532     0.376624     2.345875
 C    -1.410417     2.169617     0.106095
 C    -3.491369     0.241675     0.713256
 P    -1.636547     0.368892     0.575835
 P     1.764223    -0.344356    -0.551009
 C    -0.854184    -0.297385    -2.383754
 O    -1.140808     0.259773    -3.352803
 H     2.883102    -2.400088    -1.153289
 H     2.664040    -1.325691    -2.549767
 H     4.000693    -1.020802    -1.369548
 H     1.906342     1.198004    -2.362348
 H     1.207235     1.970013    -0.947995
 C     3.365719     2.014783    -0.998910
 C     4.498532     1.662209    -1.744259
 H     4.391152     0.945809    -2.561956
 C     3.495429     2.980450     0.024066
 C     2.307215     3.478635     0.799338
 H     1.776863     2.672326     1.330492
 H     1.569655     3.962056     0.137939
 H     2.613223     4.219331     1.550317
 C     5.750036     2.203922    -1.469661
 H     6.616750     1.904425    -2.063127
 C     4.762159     3.514038     0.289412
 H     4.863871     4.258259     1.084004
 C     5.886136     3.128044    -0.436821
 H     6.862035     3.560323    -0.204397
 H     2.609292     0.809989     1.418285
 H     1.740568    -0.681173     1.830333
 C     3.826268    -0.945227     1.347915
 C     5.016270    -0.218233     1.236389
 H     4.967596     0.856688     1.048423
 C     3.882417    -2.333106     1.594043
 C     2.629141    -3.145592     1.746238
 H     1.927753    -3.002059     0.909494
 H     2.074777    -2.859259     2.655954
 H     2.858773    -4.217201     1.821645
 C     6.255934    -0.841753     1.350160
 H     7.170835    -0.252317     1.254559
 C     5.136234    -2.942526     1.707130
 H     5.183393    -4.018589     1.896481
 C     6.316778    -2.212986     1.583437
 H     7.281972    -2.717373     1.672636
 H    -1.300437    -0.639049     2.740502
 H    -0.095773     0.628850     2.427923
 H    -1.761839     1.088421     2.932612
 H    -0.446648     2.450267     0.557226
 H    -1.263406     2.175583    -0.981932
 C    -2.490580     3.117158     0.522794
 C    -2.498828     3.643802     1.820333
 H    -1.673445     3.401784     2.495499
 C    -3.530447     3.463871    -0.367010
 C    -3.538093     2.984853    -1.791933
 H    -3.479025     1.888780    -1.877762
 H    -2.678222     3.383649    -2.354880
 H    -4.451040     3.309349    -2.309371
 C    -3.525554     4.474058     2.261440
 H    -3.509494     4.871311     3.279026
 C    -4.554441     4.298407     0.092955
 H    -5.362710     4.566496    -0.593038
 C    -4.565303     4.796686     1.393648
 H    -5.380540     5.444709     1.723585
 H    -3.798150     0.862998     1.569347
 H    -3.908544     0.718826    -0.181595
 C    -3.988803    -1.164822     0.853744
 C    -3.955844    -1.795219     2.102189
 H    -3.600724    -1.234884     2.971288
 C    -4.481256    -1.872003    -0.261330
 C    -4.555689    -1.233467    -1.617498
 H    -3.563471    -0.892570    -1.950569
 H    -5.225755    -0.357515    -1.619450
 H    -4.935834    -1.942374    -2.365605
 C    -4.373575    -3.113590     2.261138
 H    -4.333461    -3.585729     3.245559
 C    -4.906290    -3.191981    -0.084079
 H    -5.284382    -3.743770    -0.949045
 C    -4.848419    -3.818201     1.158311
 H    -5.180352    -4.853692     1.264403
