  86
scf done:    -2521.544533
 C    -0.334573    -1.724016     3.030479
 H    -0.553704    -1.323362     4.025285
 H    -1.062490    -2.459828     2.679280
 C     1.028621    -1.843768     2.604578
 H     1.832194    -1.528859     3.277532
 H     1.303534    -2.663167     1.936117
 H    -0.322645    -1.390250     0.485320
Ir     0.084802    -0.210363     1.537755
 C    -2.916003     1.725106     2.052152
 O    -1.962111     1.433036    -0.487292
 O    -3.167301    -0.500087     0.766967
 C     1.202371     2.021153    -1.057203
 O     3.036061     0.692395     0.455075
 O     1.674404    -0.482531    -1.449586
 P     1.485320     0.487235    -0.116823
 P    -1.949761     0.615670     0.973134
 C     0.674796     1.093714     2.833980
 O     1.071485     1.853240     3.597668
 H    -3.020345     1.168603     2.997364
 C    -2.269874     3.083299     2.270184
 H    -2.195957     3.647943     1.329125
 H    -1.260325     2.994072     2.696353
 H    -3.924213     1.819265     1.618814
 H    -2.870533     3.683848     2.968987
 C    -2.990260     2.165631    -1.020677
 C    -2.684373     3.440829    -1.501877
 H    -1.661327     3.808746    -1.402121
 C    -4.291120     1.674756    -1.138174
 H    -4.531648     0.679318    -0.764734
 C    -3.674655     4.216727    -2.092666
 H    -3.419900     5.213602    -2.463551
 C    -5.272237     2.470921    -1.728114
 H    -6.289249     2.077817    -1.811508
 C    -4.989812     3.749307    -2.217489
 C    -6.047012     4.588629    -2.874499
 H    -6.020879     5.627071    -2.510403
 H    -7.053191     4.188492    -2.686159
 H    -5.904254     4.625181    -3.967227
 C    -2.983710    -1.705923     0.140324
 C    -2.646120    -1.774129    -1.209795
 H    -2.488539    -0.853536    -1.774395
 C    -3.183832    -2.874531     0.871583
 H    -3.456626    -2.796313     1.925379
 C    -2.498263    -3.019364    -1.815006
 H    -2.233413    -3.066525    -2.874638
 C    -3.025742    -4.109808     0.252591
 H    -3.175597    -5.022131     0.836677
 C    -2.671447    -4.207500    -1.098840
 C    -2.448992    -5.545205    -1.741906
 H    -2.508243    -5.481214    -2.837998
 H    -3.188189    -6.286714    -1.403724
 H    -1.450639    -5.939547    -1.487820
 H     0.265159     1.834719    -1.603672
 C     1.080869     3.241043    -0.160847
 H     2.008157     3.429559     0.400331
 H     0.263926     3.114027     0.564465
 H     2.011776     2.126613    -1.796516
 H     0.867635     4.140419    -0.757897
 C     4.073982     1.296800    -0.204749
 C     4.744545     2.328702     0.454055
 H     4.402742     2.624190     1.448223
 C     4.495821     0.889653    -1.470524
 H     3.972485     0.081174    -1.981668
 C     5.828061     2.950720    -0.155600
 H     6.344991     3.757897     0.371232
 C     5.580623     1.529538    -2.068282
 H     5.901928     1.206273    -3.062327
 C     6.267635     2.566107    -1.429331
 C     7.452470     3.230586    -2.068791
 H     7.413779     4.324196    -1.950541
 H     7.507940     3.007122    -3.143588
 H     8.395589     2.888725    -1.610918
 C     1.723101    -1.850203    -1.386780
 C     0.925257    -2.571008    -2.269066
 H     0.275185    -2.025110    -2.954116
 C     2.569520    -2.516254    -0.500913
 H     3.199019    -1.941182     0.180654
 C     0.962554    -3.961757    -2.252559
 H     0.329780    -4.520725    -2.947191
 C     2.587503    -3.908013    -0.491308
 H     3.247053    -4.424299     0.211860
 C     1.782040    -4.657582    -1.357381
 C     1.774774    -6.158032    -1.302561
 H     1.411992    -6.594665    -2.244323
 H     1.115600    -6.520557    -0.495497
 H     2.778944    -6.561719    -1.104841
