  64
scf done:    -1833.741815
 C    -0.581051    -3.037512    -0.912165
 H    -1.350670    -3.568275    -0.341122
 H    -0.782222    -3.014967    -1.987194
 C     0.783159    -3.111763    -0.456280
 H     1.006528    -3.693975     0.444015
 H     1.582441    -3.145863    -1.202723
 H     0.580055    -0.846050    -1.626496
Ir     0.014617    -1.123391    -0.113189
 C    -1.193210     1.473191    -2.148630
 O    -3.069336     0.083181    -1.006716
 O    -1.682373     1.612382     0.539318
 C     1.331088     1.283952     2.097705
 O     3.159857    -0.060611     0.829797
 O     1.771450     1.591392    -0.573668
 P     1.605709     0.392127     0.541433
 P    -1.514537     0.491726    -0.661449
 C    -0.643815    -1.515251     1.650100
 O    -1.043673    -1.734660     2.704252
 H    -0.204711     1.937626    -2.030640
 H    -1.161592     0.778615    -2.998676
 H    -1.975004     2.225670    -2.321974
 C    -3.674994    -1.097859    -0.471532
 H    -2.885361    -1.864979    -0.386756
 C    -4.713613    -1.549598    -1.474868
 H    -4.245817    -1.734631    -2.452331
 H    -5.489425    -0.778652    -1.603058
 H    -5.197859    -2.478154    -1.138019
 C    -4.248276    -0.824444     0.904814
 H    -3.460584    -0.502877     1.601249
 H    -5.016290    -0.036405     0.855559
 H    -4.711895    -1.733791     1.315797
 C    -2.592199     2.715059     0.465491
 H    -3.318544     2.520581    -0.343708
 C    -1.820520     3.988397     0.174715
 H    -1.268080     3.916781    -0.771750
 H    -1.093693     4.183740     0.977923
 H    -2.503148     4.849266     0.111380
 C    -3.337798     2.783751     1.782814
 H    -3.894747     1.855382     1.964523
 H    -2.628729     2.927314     2.612727
 H    -4.048280     3.623970     1.784000
 H     0.366598     1.804660     2.017500
 H     1.270917     0.540765     2.905327
 H     2.146558     1.986547     2.319800
 C     3.710729    -1.264987     0.284184
 H     2.937595    -2.047625     0.366436
 C     4.900197    -1.624083     1.147385
 H     4.593040    -1.737175     2.196940
 H     5.668416    -0.836774     1.095982
 H     5.348967    -2.570266     0.810494
 C     4.061029    -1.081614    -1.178510
 H     3.166354    -0.808916    -1.757670
 H     4.819002    -0.291858    -1.300713
 H     4.466445    -2.015768    -1.595686
 C     2.749686     2.629988    -0.463642
 H     3.478328     2.349456     0.317177
 C     2.064215     3.930032    -0.088735
 H     1.529915     3.840577     0.866886
 H     1.333075     4.211977    -0.861705
 H     2.799822     4.743462     0.002206
 C     3.472690     2.718842    -1.792271
 H     3.955302     1.762717    -2.034214
 H     2.760393     2.956494    -2.597428
 H     4.242530     3.504620    -1.765567
