  88
scf done:    -2299.332324
 C     0.359358    -3.639617    -1.555512
 H    -0.108014    -4.490422    -1.048074
 H    -0.102150    -3.406179    -2.520224
 C     1.774728    -3.427269    -1.393124
 H     2.344000    -4.123254    -0.767520
 H     2.350145    -3.037703    -2.239057
 H     0.730528    -1.104158    -1.748185
Ir     0.687777    -1.912820    -0.315415
 C    -1.793051     0.522669    -1.093898
 C    -2.744712    -2.150773    -0.580450
 C    -1.937063    -0.453798     1.668420
 C     3.027419    -0.679863     2.013333
 C     3.860615    -0.588948    -0.726692
 C     2.078264     1.424491     0.453712
 P     2.336902    -0.407141     0.335409
 P    -1.416478    -0.937831    -0.071729
 C     0.619897    -2.859260     1.341584
 O     0.570453    -3.396415     2.359730
 H    -1.125882     1.341929    -0.799415
 H    -1.570824     0.262797    -2.138036
 H    -2.834237     0.854324    -0.989100
 H    -2.526144    -2.356763    -1.639944
 H    -2.513816    -3.074975    -0.030136
 C    -4.162114    -1.725541    -0.370302
 C    -4.863172    -2.115286     0.778597
 H    -4.392786    -2.796497     1.492921
 C    -4.810027    -0.888265    -1.288835
 H    -4.287345    -0.603614    -2.206201
 C    -6.156194    -1.651343     1.010348
 H    -6.692337    -1.964446     1.909445
 C    -6.101822    -0.402947    -1.067992
 C    -6.745110     0.540852    -2.042064
 H    -6.594024     1.587300    -1.727526
 H    -6.316894     0.436238    -3.049051
 H    -7.830200     0.374879    -2.110092
 C    -6.768574    -0.793017     0.100878
 H    -7.782911    -0.431122     0.290369
 H    -2.717139    -1.165701     1.976755
 H    -1.058869    -0.637389     2.301653
 C    -2.421696     0.952911     1.839397
 C    -1.568768     1.945926     2.329806
 H    -0.550652     1.680939     2.627703
 C    -3.729793     1.311707     1.487517
 H    -4.410468     0.542684     1.115315
 C    -2.014220     3.260905     2.455666
 H    -1.342121     4.027330     2.850600
 C    -4.189155     2.625679     1.595068
 C    -5.585841     2.983020     1.174583
 H    -6.207718     2.084196     1.057852
 H    -6.071008     3.648231     1.904899
 H    -5.581606     3.513474     0.207483
 C    -3.311905     3.602112     2.086382
 H    -3.654307     4.635799     2.188972
 H     3.401002    -1.711594     2.080281
 H     3.841161     0.022361     2.248911
 H     2.218027    -0.566040     2.748909
 H     4.143118    -1.644781    -0.595652
 H     3.521992    -0.493816    -1.768387
 C     5.000175     0.331616    -0.424069
 C     5.082829     1.597204    -1.019842
 H     4.324738     1.906710    -1.744139
 C     5.989688    -0.036322     0.495959
 H     5.941325    -1.028080     0.956188
 C     6.121199     2.463647    -0.688288
 H     6.173865     3.449616    -1.156571
 C     7.041546     0.819390     0.837769
 C     8.107834     0.379790     1.799226
 H     7.727831    -0.367230     2.511034
 H     8.954917    -0.080129     1.263167
 H     8.508185     1.228363     2.372928
 C     7.090869     2.081931     0.235805
 H     7.901275     2.770148     0.491424
 H     1.531160     1.563840     1.399458
 H     3.073797     1.880480     0.604697
 C     1.343547     2.134252    -0.647213
 C     1.448995     1.766222    -1.993937
 H     2.053592     0.907181    -2.283865
 C     0.524620     3.220423    -0.321346
 H     0.426215     3.511585     0.727708
 C     0.748460     2.467477    -2.971195
 H     0.833593     2.164319    -4.017549
 C    -0.198243     3.929151    -1.287063
 C    -1.108633     5.049726    -0.877880
 H    -0.580539     5.788987    -0.255685
 H    -1.522437     5.573336    -1.751014
 H    -1.949515     4.665932    -0.277293
 C    -0.072591     3.537907    -2.623502
 H    -0.629526     4.073412    -3.397120
