  64
scf done:    -1833.688540
 C     2.319947    -2.253219    -0.291248
 H     2.950771    -1.993517    -1.148422
 H     2.882127    -2.342762     0.643392
 C     1.183592    -3.113160    -0.509032
 H     0.993792    -3.475427    -1.525521
 H     0.905784    -3.833988     0.265276
 H     0.590318    -1.612665     1.463777
Ir     0.510320    -1.104324    -0.088489
 C     2.764762     1.335302     1.125515
 O     0.549519     2.181180    -0.215462
 O     0.293912     1.451902     2.151906
 C    -2.544630     0.656145     0.021400
 O    -2.769785    -1.843186    -0.746876
 O    -2.186722    -1.483170     1.737455
 P    -1.758189    -0.983444     0.226270
 P     1.016574     0.946204     0.755422
 C     0.497426    -0.579233    -1.944839
 O     0.505295    -0.268802    -3.048404
 H     2.818287     2.313120     1.633134
 H     3.083384     0.574447     1.858908
 C     3.645090     1.280493    -0.114656
 H     3.476993     0.315624    -0.622414
 H     3.319881     2.055612    -0.830572
 C     5.126768     1.449212     0.187102
 H     5.442115     0.668025     0.902629
 H     5.293523     2.412562     0.703392
 C     6.006012     1.380964    -1.053667
 H     5.831345     0.417647    -1.564445
 H     5.683156     2.158820    -1.768215
 C     7.487559     1.542258    -0.754705
 H     8.095680     1.487794    -1.670332
 H     7.844895     0.755141    -0.071251
 H     7.695636     2.512207    -0.274595
 C     0.701852     3.534959     0.155235
 H     0.318430     3.717302     1.170710
 H     1.757281     3.852453     0.102959
 H     0.123871     4.134130    -0.561686
 C     0.108452     0.597779     3.259998
 H    -0.483548    -0.290260     2.989256
 H     1.071283     0.268234     3.686846
 H    -0.428360     1.177885     4.023946
 H    -2.303142     1.200110     0.952060
 H    -1.931685     1.149266    -0.751731
 C    -4.020691     0.752294    -0.338406
 H    -4.211336     0.134807    -1.230380
 H    -4.647356     0.324429     0.460285
 C    -4.455473     2.188382    -0.598189
 H    -3.831132     2.616978    -1.403336
 H    -4.249084     2.803686     0.296946
 C    -5.924678     2.319747    -0.974240
 H    -6.124887     1.698454    -1.864998
 H    -6.544538     1.890184    -0.167078
 C    -6.354440     3.753127    -1.241526
 H    -7.419831     3.815723    -1.510363
 H    -5.776333     4.195240    -2.068956
 H    -6.197069     4.389422    -0.355578
 C    -2.447213    -3.170579    -1.106088
 H    -1.365468    -3.274374    -1.288369
 H    -2.740317    -3.876677    -0.311365
 H    -3.004290    -3.411282    -2.022034
 C    -3.525169    -1.514851     2.175829
 H    -3.873600    -0.512921     2.479732
 H    -4.198627    -1.906079     1.396116
 H    -3.571138    -2.178876     3.050644
