  46
scf done:    -1598.003999
 C    -0.770530    -2.608462    -1.210433
 H    -1.429043    -3.207289    -0.571959
 H    -1.177035    -2.439290    -2.211905
 C     0.654200    -2.738153    -1.049628
 H     1.031957    -3.433415    -0.291926
 H     1.297162    -2.665179    -1.931340
 H     0.239571    -0.359607    -1.856616
Ir     0.004810    -0.813478    -0.305052
 C    -3.444704    -0.057314    -0.425972
 O    -1.826561     1.591271     1.024532
 O    -1.928427     1.709520    -1.547603
 C     1.561555     1.953362     1.361850
 O     3.140783    -0.013009     0.810620
 O     2.288726     1.365893    -1.195352
 P     1.753011     0.592945     0.157731
 P    -1.757925     0.630953    -0.321820
 C    -0.236639    -1.479310     1.489627
 O    -0.378280    -1.907504     2.544566
 H    -3.469027    -0.618255    -1.373601
 C    -3.779560    -0.953606     0.754954
 H    -3.709402    -0.409936     1.709701
 H    -3.083863    -1.803851     0.809338
 H    -4.154366     0.779066    -0.532875
 H    -4.799504    -1.355784     0.667287
 C    -2.840713     2.556451     1.198122
 H    -3.042921     3.103526     0.262943
 H    -3.779179     2.097658     1.553143
 H    -2.493371     3.268393     1.960246
 C    -0.823460     2.448390    -2.025344
 H     0.069526     1.814841    -2.142489
 H    -1.107565     2.866395    -3.000892
 H    -0.581097     3.281616    -1.342847
 H     0.823707     2.642119     0.919051
 C     1.098359     1.476935     2.729229
 H     1.780782     0.714864     3.134021
 H     0.086889     1.051805     2.670154
 H     2.526702     2.480107     1.432441
 H     1.067727     2.315375     3.441230
 C     3.652549    -1.256762     0.381686
 H     2.835410    -1.964066     0.168098
 H     4.264022    -1.139000    -0.528635
 H     4.285498    -1.653051     1.187869
 C     3.392030     2.243117    -1.163361
 H     3.094066     3.255762    -0.842351
 H     4.184019     1.873355    -0.491824
 H     3.794208     2.305933    -2.184388
