  92
scf done:    -2599.966668
 C    -0.634345    -2.846269    -2.074455
 H    -1.370966    -3.586669    -1.740671
 H    -0.830265    -2.472782    -3.084334
 C     0.729246    -3.001825    -1.632711
 H     0.972628    -3.847979    -0.981033
 H     1.546706    -2.740003    -2.311344
 H     0.371259    -0.538663    -2.007771
Ir    -0.142948    -1.302958    -0.657968
 C    -2.106800     1.284788    -2.157842
 C    -3.531314    -0.395999    -0.332245
 C    -1.758139     1.490720     0.811234
 C     1.531473     0.571026     2.038761
 C     3.210349    -1.091661     0.412394
 C     2.146483     1.325060    -0.696952
 P     1.657293    -0.125044     0.306040
 P    -1.852494     0.304386    -0.583477
 C    -0.811727    -2.315003     0.820409
 O    -1.259392    -2.958063     1.665132
 H    -2.336045     0.444234    -2.838306
 C    -3.306742     2.224114    -2.138198
 H    -3.424662     2.693419    -3.128278
 H    -4.241803     1.696890    -1.905321
 H    -3.184348     3.034362    -1.403118
 C    -0.850362     1.962253    -2.691953
 H     0.016345     1.289382    -2.655721
 H    -1.011150     2.259094    -3.740435
 H    -0.587413     2.873450    -2.135725
 C    -4.571411     0.308469     0.297785
 H    -4.386300     1.305693     0.703614
 C    -3.807390    -1.671323    -0.827444
 H    -2.999373    -2.233420    -1.301279
 C    -5.834522    -0.246510     0.425540
 H    -6.644686     0.291555     0.921399
 C    -5.076058    -2.238939    -0.715741
 H    -5.247442    -3.239358    -1.113553
 C    -6.100249    -1.526926    -0.082817
 O    -7.354420    -1.986354     0.088299
 C    -7.676333    -3.262689    -0.389084
 H    -7.067866    -4.047316     0.094143
 H    -8.732782    -3.432698    -0.145671
 H    -7.545878    -3.337223    -1.483167
 C    -1.985291     0.990491     2.107646
 H    -2.303997    -0.047491     2.235910
 C    -1.350786     2.818987     0.691558
 H    -1.156367     3.246546    -0.291435
 C    -1.806389     1.782055     3.227821
 H    -1.979875     1.392025     4.232401
 C    -1.154883     3.629401     1.814360
 H    -0.831310     4.661016     1.672947
 C    -1.377470     3.112434     3.093298
 O    -1.212247     3.804111     4.237116
 C    -0.765192     5.128255     4.164817
 H    -1.471107     5.771317     3.609841
 H    -0.690545     5.493059     5.196988
 H     0.228913     5.199916     3.688305
 H     0.731433     1.325966     1.956664
 C     1.063361    -0.503538     3.008804
 H     0.946430    -0.071671     4.015340
 H     0.098290    -0.931913     2.714828
 H     1.796433    -1.323375     3.079333
 C     2.810953     1.227573     2.543876
 H     3.215601     1.975009     1.847113
 H     2.614207     1.732596     3.503724
 H     3.594621     0.474890     2.718256
 C     4.484884    -0.519444     0.268388
 H     4.580684     0.540358     0.021672
 C     3.131146    -2.451121     0.721677
 H     2.145805    -2.914101     0.810293
 C     5.631563    -1.282267     0.425058
 H     6.625262    -0.846432     0.305037
 C     4.275390    -3.228023     0.897513
 H     4.168522    -4.286108     1.137236
 C     5.537925    -2.644438     0.745496
 O     6.703716    -3.306105     0.879636
 C     6.673118    -4.670064     1.193154
 H     6.156037    -5.259195     0.415255
 H     7.717106    -5.002742     1.254297
 H     6.181618    -4.858018     2.164162
 C     2.708754     1.104751    -1.966996
 H     2.909881     0.081523    -2.294601
 C     1.878005     2.640580    -0.322137
 H     1.428447     2.856501     0.647629
 C     2.995207     2.157654    -2.817405
 H     3.430998     1.989166    -3.803904
 C     2.152664     3.714472    -1.173578
 H     1.922939     4.727128    -0.840734
 C     2.714463     3.477817    -2.430334
 O     3.016138     4.438363    -3.325982
 C     2.735465     5.770384    -3.003988
 H     3.294628     6.105214    -2.112113
 H     3.046645     6.376005    -3.864598
 H     1.657089     5.931381    -2.826024
