  92
scf done:    -2600.100164
 C     1.681154    -1.097184    -3.129541
 H     1.596938    -0.486197    -4.033465
 H     2.711019    -1.252613    -2.796553
 C     0.696564    -2.104661    -2.870816
 H    -0.126145    -2.249766    -3.577174
 H     0.993362    -3.017646    -2.347505
 H     1.502495    -1.256828    -0.614061
Ir     0.399302    -0.454525    -1.501615
 C     0.700826     3.033970    -0.666836
 O     1.191250     1.120144     1.207758
 O     2.911370     1.670660    -0.664083
 C    -2.383894    -0.193173     0.791560
 O    -1.802108    -2.612200    -0.325321
 O    -0.373922    -1.569747     1.592915
 P    -1.029869    -1.202791     0.108320
 P     1.299438     1.328461    -0.441924
 C    -0.802900     0.483269    -2.684186
 O    -1.482465     1.058806    -3.410029
 H     1.371085     3.720205    -0.124957
 H     0.825144     3.240946    -1.742961
 C    -0.749015     3.209251    -0.238339
 H    -1.369773     2.429394    -0.710568
 H    -0.831094     3.047892     0.850290
 C    -1.313861     4.578168    -0.589134
 H    -1.203462     4.749529    -1.675136
 H    -0.710682     5.361762    -0.096233
 C    -2.776578     4.738639    -0.200405
 H    -3.368730     3.957502    -0.707967
 H    -2.886844     4.542196     0.881062
 C    -3.348640     6.106594    -0.533056
 H    -4.408805     6.182222    -0.247056
 H    -3.280405     6.315581    -1.612717
 H    -2.803832     6.907476    -0.007892
 C     1.467481     2.012213     2.202654
 C     0.565512     2.055134     3.269781
 H    -0.308267     1.400639     3.239849
 C     2.608471     2.818512     2.209201
 H     3.313779     2.762639     1.379658
 C     0.801224     2.912173     4.340716
 H     0.094246     2.940577     5.173373
 C     2.827001     3.677533     3.285764
 H     3.719152     4.308472     3.289787
 C     1.930731     3.731109     4.351717
 H     2.113837     4.404909     5.191302
 C     3.866569     0.703134    -0.849823
 C     4.713196     0.831593    -1.949525
 H     4.571278     1.675518    -2.626845
 C     4.006390    -0.362418     0.039014
 H     3.337464    -0.454935     0.896087
 C     5.705934    -0.120619    -2.165185
 H     6.367755    -0.022961    -3.029042
 C     4.996187    -1.314965    -0.194136
 H     5.090701    -2.156337     0.495534
 C     5.846961    -1.200145    -1.292502
 H     6.620073    -1.951084    -1.469372
 H    -2.844069    -0.750504     1.623458
 H    -1.876275     0.682467     1.228404
 C    -3.418303     0.233349    -0.236943
 H    -2.916524     0.706292    -1.097001
 H    -3.932049    -0.655672    -0.639192
 C    -4.443092     1.201200     0.336463
 H    -3.914723     2.060887     0.786481
 H    -4.985784     0.714256     1.166493
 C    -5.437839     1.709468    -0.696900
 H    -4.882592     2.163500    -1.537258
 H    -5.980509     0.851355    -1.130856
 C    -6.428154     2.716153    -0.134711
 H    -7.137475     3.061189    -0.902020
 H    -5.910207     3.604239     0.262817
 H    -7.015188     2.282009     0.690532
 C    -2.845950    -3.206517     0.332838
 C    -3.985842    -3.507711    -0.415560
 H    -4.000430    -3.242288    -1.474459
 C    -2.779636    -3.546064     1.686440
 H    -1.880690    -3.315413     2.258173
 C    -5.064733    -4.142478     0.193383
 H    -5.953646    -4.378234    -0.396688
 C    -3.869587    -4.176884     2.284855
 H    -3.816464    -4.441812     3.343615
 C    -5.013535    -4.475950     1.547002
 H    -5.861275    -4.972726     2.023637
 C     0.818125    -2.204350     1.794707
 C     1.659933    -1.697727     2.784856
 H     1.358448    -0.799135     3.324689
 C     1.175355    -3.344867     1.072386
 H     0.504304    -3.726801     0.300714
 C     2.866374    -2.339267     3.053756
 H     3.525291    -1.940248     3.828607
 C     2.389012    -3.972103     1.345160
 H     2.671063    -4.860536     0.775380
 C     3.237138    -3.476494     2.334868
 H     4.184205    -3.977203     2.548400
