  40
scf done:    -1519.442514
 C    -0.775635    -2.700348    -0.909043
 H    -1.501418    -3.203190    -0.260754
 H    -1.094822    -2.649130    -1.953925
 C     0.626190    -2.842075    -0.611191
 H     0.927679    -3.442334     0.253305
 H     1.330492    -2.905349    -1.446101
 H     0.394123    -0.540038    -1.718381
Ir    -0.011256    -0.828844    -0.156141
 C    -1.360361     1.899864    -1.942612
 O    -3.127705     0.485551    -0.666510
 O    -1.551566     1.904828     0.781017
 C     1.704833     1.375253     1.995095
 O     3.264688     0.100693     0.352137
 O     1.733644     1.884664    -0.677098
 P     1.696364     0.597930     0.358568
 P    -1.529438     0.841674    -0.487080
 C    -0.485099    -1.247552     1.661816
 O    -0.771055    -1.490481     2.746347
 H    -0.362909     2.358447    -1.895102
 H    -1.414552     1.259115    -2.832675
 H    -2.151497     2.660809    -1.989989
 C    -3.710657    -0.511919     0.144400
 H    -3.094410    -1.425912     0.146212
 H    -3.833288    -0.163528     1.184095
 H    -4.700534    -0.739727    -0.273894
 C    -2.425061     3.012161     0.802765
 H    -2.023750     3.852748     0.211358
 H    -3.423110     2.747279     0.417178
 H    -2.523972     3.337970     1.847900
 H     1.717393     0.581679     2.755009
 H     2.578079     2.026063     2.140888
 H     0.768038     1.943528     2.088875
 C     3.717900    -0.749036    -0.681909
 H     2.973754    -1.531478    -0.898130
 H     3.914316    -0.179261    -1.605677
 H     4.653866    -1.213255    -0.342208
 C     2.702383     2.901399    -0.552582
 H     2.418708     3.636159     0.220205
 H     3.693594     2.487376    -0.305739
 H     2.766001     3.420408    -1.519495
