  72
scf done:    -1690.062143
 C    -1.658745    -1.743683    -2.339048
 H    -1.657945    -2.838156    -2.289009
 H    -2.666634    -1.317317    -2.368956
 C    -0.602289    -1.081777    -3.063185
 H     0.175425    -1.691027    -3.535941
 H    -0.842007    -0.179677    -3.634435
 H    -1.310838     0.551761    -1.204100
Ir    -0.345833    -0.760466    -0.947623
 C    -2.404632     0.457356     1.730130
 C    -2.619661    -2.349168     1.213911
 C    -0.276339    -1.298624     2.556744
 C     2.847658     0.196666     0.123777
 C     1.854504     1.750877    -2.098068
 C     0.766434     2.242996     0.553060
 P     1.279495     0.870889    -0.582329
 P    -1.400406    -0.965343     1.124299
 C     0.815169    -2.252025    -0.709406
 O     1.542991    -3.131984    -0.549527
 H    -2.797391     0.217403     2.732985
 H    -1.698879     1.295373     1.854399
 C    -3.537905     0.865126     0.799850
 H    -3.139316     0.964477    -0.223929
 H    -4.292787     0.060884     0.756556
 C    -4.213371     2.163481     1.218237
 H    -3.458734     2.971285     1.246280
 H    -4.589897     2.071588     2.253834
 C    -5.355751     2.574415     0.299790
 H    -4.974227     2.656889    -0.733121
 H    -6.107268     1.765430     0.274691
 C    -6.021241     3.878754     0.707547
 H    -6.842008     4.147685     0.025452
 H    -5.300709     4.712639     0.705104
 H    -6.441961     3.812606     1.724024
 H    -3.356220    -2.136221     0.422989
 C    -2.000884    -3.719136     0.992436
 H    -1.277036    -3.978483     1.780915
 H    -1.471628    -3.754086     0.029001
 H    -3.155660    -2.299784     2.177488
 H    -2.773274    -4.503147     0.983772
 H     0.372028    -0.408585     2.622703
 C    -0.900863    -1.620815     3.904709
 H    -1.510753    -2.535870     3.863326
 H    -1.545918    -0.806731     4.268348
 H     0.384292    -2.115758     2.222999
 H    -0.122097    -1.783411     4.666125
 H     2.537166    -0.399528     0.998564
 H     3.179843    -0.545534    -0.623075
 C     3.997472     1.122079     0.494514
 H     4.237586     1.794688    -0.346970
 H     3.697063     1.774924     1.331027
 C     5.254768     0.360190     0.894351
 H     5.569076    -0.288417     0.056603
 H     5.015856    -0.326239     1.727063
 C     6.411781     1.263436     1.298180
 H     6.641478     1.950514     0.464327
 H     6.091487     1.908999     2.135405
 C     7.665792     0.499865     1.692021
 H     8.482804     1.179256     1.978440
 H     8.029380    -0.126192     0.861386
 H     7.474231    -0.169066     2.546460
 H     2.289676     0.961908    -2.733171
 C     0.736108     2.465844    -2.839639
 H     0.302715     3.282150    -2.241209
 H    -0.076891     1.766088    -3.077222
 H     2.669525     2.447659    -1.840172
 H     1.105583     2.904585    -3.779106
 H     0.781866     1.802595     1.564991
 C     1.517211     3.566637     0.522916
 H     1.454697     4.046002    -0.464814
 H     2.581641     3.456988     0.769010
 H    -0.297206     2.403523     0.316635
 H     1.081453     4.268910     1.250986
