 100
scf done:    -2829.064052
 C    -1.249293    -1.650201    -3.203114
 H    -1.990872    -2.441077    -3.051135
 H    -1.630377    -0.787519    -3.756365
 C     0.135411    -2.005011    -3.305876
 H     0.423480    -3.058251    -3.233088
 H     0.803013    -1.410146    -3.934421
 H     0.087978     0.309144    -2.248111
Ir    -0.221839    -1.050311    -1.399539
 O    -1.120258     1.514776     0.591519
 O    -2.700684     1.039660    -1.375142
 O    -2.750629    -0.313044     0.798369
 O     2.258607    -1.904368     0.581915
 O     3.033462    -0.568692    -1.488254
 O     2.130159     0.540391     0.602744
 P     1.789579    -0.725188    -0.417219
 P    -1.672366     0.299536    -0.310223
 C    -0.569239    -2.762115    -0.558323
 O    -0.736683    -3.806927    -0.124376
 C    -1.821796     2.212555     1.629370
 H    -1.593732     3.278087     1.471834
 H    -2.906148     2.078096     1.516563
 C    -1.369464     1.760482     2.999741
 H    -1.962831     2.326066     3.740635
 H    -1.642297     0.699340     3.130394
 C     0.115625     1.959078     3.255428
 H     0.383823     3.009464     3.047434
 H     0.677370     1.363898     2.519742
 C     0.542784     1.588765     4.665522
 H     0.031310     2.209715     5.418903
 H     0.309348     0.536964     4.894223
 H     1.626630     1.722451     4.805467
 C    -3.540413     2.071039    -1.037492
 C    -3.104616     3.385212    -1.195050
 H    -2.094494     3.565299    -1.567734
 C    -4.820074     1.807888    -0.551709
 H    -5.145376     0.773381    -0.428708
 C    -3.952731     4.434862    -0.854819
 H    -3.602963     5.464095    -0.974774
 C    -5.655411     2.869892    -0.215658
 H    -6.656210     2.658021     0.170883
 C    -5.240956     4.199828    -0.358494
 C    -6.161021     5.337681    -0.022460
 H    -5.601293     6.226790     0.302521
 H    -6.864176     5.065170     0.777966
 H    -6.762322     5.632719    -0.898843
 C    -3.268291    -1.575442     0.691971
 C    -3.821059    -2.045125    -0.499576
 H    -3.851375    -1.395771    -1.376510
 C    -3.227376    -2.396666     1.816954
 H    -2.788233    -2.010393     2.738162
 C    -4.308202    -3.348810    -0.558716
 H    -4.730850    -3.713965    -1.498771
 C    -3.725546    -3.692413     1.741126
 H    -3.682595    -4.332207     2.626906
 C    -4.263470    -4.198824     0.551102
 C    -4.741813    -5.618632     0.462671
 H    -3.902567    -6.301513     0.248654
 H    -5.481664    -5.746575    -0.340465
 H    -5.199972    -5.950900     1.405890
 C     2.962266    -1.790056     1.819732
 H     3.521326    -2.733504     1.919681
 H     3.690329    -0.967574     1.770120
 C     1.998616    -1.599831     2.972413
 H     2.591147    -1.521231     3.901302
 H     1.496111    -0.627560     2.845061
 C     0.961624    -2.706653     3.100434
 H     1.472883    -3.667614     3.287347
 H     0.446206    -2.825517     2.135142
 C    -0.061982    -2.444977     4.192336
 H     0.414003    -2.331119     5.179964
 H    -0.623895    -1.518518     3.991418
 H    -0.791315    -3.265977     4.265849
 C     4.354849    -0.533298    -1.105744
 C     5.030616    -1.722595    -0.836737
 H     4.491723    -2.668136    -0.915268
 C     5.020871     0.687321    -1.019271
 H     4.479706     1.609223    -1.237320
 C     6.371880    -1.681317    -0.466599
 H     6.894932    -2.617800    -0.253277
 C     6.362712     0.709959    -0.649227
 H     6.877075     1.672399    -0.578188
 C     7.063275    -0.468170    -0.364170
 C     8.518616    -0.433919     0.003520
 H     8.794383    -1.286625     0.640884
 H     8.777658     0.491005     0.539259
 H     9.155512    -0.478998    -0.895951
 C     2.232714     1.871413     0.313871
 C     1.730138     2.455129    -0.845989
 H     1.218602     1.844996    -1.590448
 C     2.887649     2.659878     1.261603
 H     3.288008     2.180926     2.157072
 C     1.881917     3.827322    -1.040855
 H     1.485426     4.273668    -1.957217
 C     3.025866     4.026178     1.051568
 H     3.543035     4.630168     1.802643
 C     2.523461     4.641260    -0.103241
 C     2.658429     6.122200    -0.310878
 H     1.963234     6.681757     0.337071
 H     2.439202     6.403952    -1.350530
 H     3.674288     6.472725    -0.072100
