  78
scf done:    -2292.556209
 C    -0.907223    -3.004262    -1.231244
 H    -1.511471    -3.615530    -0.552624
 H    -1.425331    -2.754121    -2.161750
 C     0.520815    -3.164663    -1.234605
 H     0.963663    -3.907797    -0.561905
 H     1.074374    -3.042372    -2.170303
 H     0.025088    -0.721147    -1.857021
Ir    -0.012644    -1.276824    -0.314085
 O    -1.655940     1.556048    -0.997979
 C    -3.319537    -0.596400    -0.749467
 C    -2.241187     0.747887     1.565410
 O     2.017122     0.780607     1.490791
 C     3.473577    -0.558117    -0.398323
 C     1.853870     1.672459    -0.996206
 P     1.803195     0.119669    -0.026493
 P    -1.788629     0.170306    -0.114762
 C    -0.130880    -2.023171     1.447395
 O    -0.252565    -2.485023     2.492611
 C    -2.216697     2.826733    -0.650626
 H    -2.119529     2.960503     0.441278
 C    -3.684251     2.923681    -1.022366
 H    -4.282981     2.143733    -0.532961
 H    -3.820156     2.827473    -2.110304
 H    -4.082135     3.901876    -0.712153
 C    -1.369693     3.867590    -1.348546
 H    -0.318675     3.772194    -1.047996
 H    -1.424813     3.737249    -2.439913
 H    -1.721035     4.879824    -1.098166
 C    -3.941740    -1.620306    -0.022696
 C    -3.780323    -0.291719    -2.033218
 C    -5.501766    -1.976278    -1.832895
 C    -4.868482    -0.978183    -2.570490
 C    -5.032922    -2.298002    -0.557981
 H    -3.563406    -1.893568     0.966466
 H    -5.516831    -3.088701     0.020501
 H    -6.355115    -2.512898    -2.254287
 H    -5.221641    -0.732002    -3.574963
 H    -3.271392     0.481332    -2.611810
 C    -3.563021     0.916278     1.997393
 C    -1.190213     1.069252     2.436051
 C    -2.779213     1.720318     4.136527
 C    -1.461026     1.559946     3.711241
 C    -3.829179     1.395209     3.278577
 H    -4.391620     0.662897     1.332347
 H    -4.864062     1.515487     3.607989
 H    -2.989953     2.095872     5.140880
 H    -0.633988     1.810490     4.380347
 H    -0.154063     0.936251     2.111350
 C     3.000595     0.398094     2.449511
 H     3.977108     0.316325     1.939674
 C     2.665672    -0.937358     3.083466
 H     2.633271    -1.736720     2.329994
 H     1.687304    -0.899635     3.584666
 H     3.430132    -1.207444     3.827391
 C     3.068598     1.524068     3.461223
 H     3.325405     2.475121     2.972555
 H     2.097463     1.645885     3.965618
 H     3.830852     1.310113     4.224825
 C     3.656324    -1.943432    -0.349845
 C     4.567207     0.267360    -0.694421
 C     5.999211    -1.671637    -0.863547
 C     5.823114    -0.288658    -0.924844
 C     4.914571    -2.498382    -0.576497
 H     2.788028    -2.576274    -0.149412
 H     5.045249    -3.582454    -0.537663
 H     6.984907    -2.105583    -1.049042
 H     6.669494     0.361438    -1.159599
 H     4.433614     1.350220    -0.753517
 C     1.575517     1.636702    -2.366710
 C     2.240590     2.880421    -0.406408
 C     2.120309     3.984054    -2.553124
 C     2.373485     4.031328    -1.183568
 C     1.715660     2.784943    -3.140648
 H     1.242328     0.701217    -2.821738
 H     1.501157     2.744789    -4.211263
 H     2.226356     4.885025    -3.162187
 H     2.674917     4.970813    -0.713612
 H     2.433084     2.908379     0.667168
