  88
scf done:    -2299.312354
 C    -0.527307    -2.793127    -2.037310
 H    -1.243332    -3.552778    -1.702785
 H    -0.731924    -2.425196    -3.047463
 C     0.838174    -2.905082    -1.591137
 H     1.107415    -3.739889    -0.935373
 H     1.649291    -2.616030    -2.266259
 H     0.404077    -0.453563    -1.967077
Ir    -0.090639    -1.233707    -0.619466
 C    -2.129096     1.305549    -2.112862
 C    -3.510030    -0.429996    -0.313471
 C    -1.782413     1.490425     0.862816
 C     1.546475     0.661380     2.092502
 C     3.254938    -0.947827     0.449086
 C     2.124366     1.454745    -0.643662
 P     1.676585    -0.015754     0.352473
 P    -1.846721     0.319448    -0.547768
 C    -0.739590    -2.266332     0.854737
 O    -1.175605    -2.919870     1.697070
 H    -2.339015     0.465630    -2.800453
 C    -3.351796     2.214850    -2.081840
 H    -3.485939     2.686204    -3.068790
 H    -4.272294     1.663381    -1.847076
 H    -3.245401     3.024033    -1.343311
 C    -0.889840     2.017833    -2.641821
 H    -0.008607     1.363620    -2.617499
 H    -1.062198     2.324581    -3.685647
 H    -0.644686     2.926829    -2.074353
 C    -3.756221    -1.691353    -0.864743
 H    -2.937918    -2.213735    -1.365412
 C    -4.558496     0.224889     0.345653
 H    -4.395482     1.211458     0.785503
 C    -5.014970    -2.277362    -0.766275
 H    -5.182980    -3.263665    -1.207978
 C    -5.811425    -0.371452     0.450949
 H    -6.614301     0.156799     0.973258
 C    -6.064066    -1.633059    -0.101593
 C    -7.406189    -2.287287     0.045800
 H    -7.622095    -2.959401    -0.797306
 H    -7.446968    -2.894191     0.965954
 H    -8.213645    -1.543445     0.109650
 C    -1.413664     2.833234     0.754598
 H    -1.240063     3.279152    -0.224037
 C    -1.985604     0.965519     2.150370
 H    -2.272746    -0.083184     2.266127
 C    -1.235321     3.619661     1.894729
 H    -0.938875     4.666245     1.779972
 C    -1.816140     1.753775     3.279580
 H    -1.977594     1.314642     4.268187
 C    -1.424886     3.097597     3.175713
 C    -1.213327     3.931132     4.404851
 H    -2.110369     3.936044     5.043798
 H    -0.386203     3.533683     5.015083
 H    -0.972392     4.972655     4.150449
 H     0.730175     1.400088     2.021167
 C     1.107016    -0.429998     3.057371
 H     0.978033    -0.005210     4.065583
 H     0.154021    -0.883318     2.761334
 H     1.861933    -1.229635     3.126761
 C     2.815337     1.341282     2.593565
 H     3.197855     2.103440     1.900387
 H     2.615104     1.834765     3.558716
 H     3.616517     0.604542     2.755880
 C     3.204770    -2.305015     0.787956
 H     2.230692    -2.784974     0.906166
 C     4.509686    -0.352634     0.272860
 H     4.579469     0.705525     0.011022
 C     4.373627    -3.040908     0.955055
 H     4.307733    -4.098795     1.224702
 C     5.675620    -1.098424     0.425241
 H     6.644967    -0.613690     0.277443
 C     5.631016    -2.454214     0.769431
 C     6.887968    -3.263012     0.901089
 H     6.788117    -4.040467     1.672684
 H     7.126691    -3.774196    -0.046732
 H     7.750242    -2.631073     1.158227
 C     1.826956     2.761343    -0.251606
 H     1.381794     2.958423     0.724001
 C     2.680963     1.256842    -1.916701
 H     2.903059     0.240956    -2.253550
 C     2.074521     3.836775    -1.106288
 H     1.827394     4.849708    -0.775439
 C     2.933249     2.330775    -2.758727
 H     3.367370     2.147262    -3.745782
 C     2.629073     3.645154    -2.372668
 C     2.883886     4.795001    -3.301988
 H     3.933993     4.816679    -3.633377
 H     2.262194     4.716388    -4.208550
 H     2.659407     5.758603    -2.823631
