  96
scf done:    -2528.219105
 C     1.541316    -2.916798     1.335143
 H     2.118229    -3.552858     0.655449
 H     2.143610    -2.485838     2.140108
 C     0.159518    -3.220976     1.568935
 H    -0.275644    -4.091319     1.064907
 H    -0.273447    -3.031774     2.556078
 H     0.423021    -0.672696     1.806387
Ir     0.325099    -1.429789     0.355899
 O     1.608547     1.530534     0.805536
 C     3.547160    -0.375915     0.611584
 C     2.265005     0.832722    -1.751058
 O    -2.028336     0.352140    -1.363917
 C    -3.245606    -1.197073     0.463625
 C    -1.878502     1.266855     1.111657
 P    -1.676021    -0.270841     0.147288
 P     1.939901     0.172714    -0.062426
 C     0.221509    -2.396371    -1.296604
 O     0.178734    -2.999764    -2.275344
 C     2.173941     2.816190     0.650777
 H     3.112407     2.881863     1.233345
 H     2.416758     3.011170    -0.406994
 C     1.153195     3.815981     1.148405
 H     1.575115     4.831934     1.057760
 H     0.291767     3.766278     0.466883
 C     0.715413     3.537585     2.580853
 H     1.563940     3.756415     3.252519
 H     0.513262     2.459495     2.683591
 C    -0.508014     4.318368     3.048522
 H    -0.459172     5.361013     2.684304
 H    -1.777667     4.592854     0.668926
 H    -0.482064     4.386410     4.149368
 C     3.928493     0.115396     1.864854
 H     3.295383     0.855575     2.358529
 C     4.311779    -1.385043    -0.012408
 C     3.917068    -1.986117    -1.328379
 H     4.015863    -1.269146    -2.158673
 H     2.863173    -2.302698    -1.313395
 H     4.537309    -2.862130    -1.561639
 C     5.084423    -0.342570     2.491597
 H     5.369462     0.054730     3.468602
 C     5.468655    -1.829004     0.636321
 H     6.069662    -2.608517     0.159661
 C     5.863793    -1.313556     1.868924
 H     6.772782    -1.684268     2.348529
 C     1.138364     0.785316    -2.583204
 H     0.216723     0.368404    -2.173887
 C     3.461750     1.416705    -2.234377
 C     4.727461     1.565005    -1.437349
 H     5.283155     0.616974    -1.374076
 H     4.546546     1.878688    -0.402374
 H     5.385343     2.306140    -1.912179
 C     1.166683     1.272290    -3.885035
 H     0.270222     1.223689    -4.507092
 C     3.468561     1.888537    -3.554775
 H     4.388473     2.335447    -3.941665
 C     2.348236     1.817131    -4.377302
 H     2.399745     2.198536    -5.400034
 C    -2.276295    -0.545681    -2.435064
 H    -1.347071    -0.681981    -3.016503
 H    -2.569016    -1.537922    -2.051983
 C    -3.375705     0.008569    -3.315468
 H    -3.548786    -0.711610    -4.134284
 H    -4.312148     0.043979    -2.732760
 C    -3.070849     1.385059    -3.888460
 H    -2.148874     1.328318    -4.494372
 H    -2.841143     2.072300    -3.057594
 C    -4.205461     1.947116    -4.728507
 H    -4.438542     1.289771    -5.581790
 H    -5.127083     2.049160    -4.133027
 H    -3.959315     2.941095    -5.131761
 C    -3.109702    -2.567494     0.706926
 H    -2.098085    -2.977853     0.733181
 C    -4.538668    -0.621189     0.417180
 C    -4.802445     0.837721     0.175412
 H    -4.169096     1.239824    -0.624162
 H    -4.589929     1.430007     1.079915
 H    -5.857790     0.994711    -0.088536
 C    -4.215757    -3.385046     0.922005
 H    -4.079393    -4.451843     1.113071
 C    -5.636041    -1.463550     0.633168
 H    -6.639648    -1.030326     0.599180
 C    -5.488161    -2.825402     0.886957
 H    -6.372283    -3.446392     1.051732
 C    -1.881730     2.450146     0.469727
 H    -1.753258     2.474911    -0.615152
 C    -2.070167     1.216011     2.580746
 C    -2.252642    -0.099385     3.280117
 H    -1.484321    -0.825230     2.971440
 H    -3.229592    -0.549662     3.045757
 H    -2.188966     0.031754     4.369128
 C    -2.222779     3.722484     1.177171
 H    -3.318286     3.849192     1.058956
 C    -2.079964     2.372247     3.274825
 H    -2.178813     2.323285     4.365020
 C    -1.887129     3.735716     2.673972
 H    -2.615130     4.410652     3.155739
