  82
scf done:    -2593.365137
 C    -0.571567    -3.552443    -1.130445
 H    -1.190703    -4.173403    -0.475864
 H    -0.986939    -3.421811    -2.133070
 C     0.848590    -3.537818    -0.944137
 H     1.292707    -4.145035    -0.149570
 H     1.501328    -3.399033    -1.810096
 H     0.200497    -1.220075    -1.806760
Ir     0.010611    -1.668196    -0.248210
 O    -1.657109     1.225227    -0.874197
 O    -3.044395    -0.898011    -1.179125
 O    -2.453264     0.027147     1.158190
 O     1.704509     1.015489     1.043790
 O     3.065094    -1.140541     0.845018
 O     2.471290     0.304028    -1.212261
 P     1.807821    -0.342921     0.137681
 P    -1.783232    -0.298637    -0.306169
 C    -0.260815    -2.313178     1.557630
 O    -0.435155    -2.697677     2.621100
 C    -0.773886     1.587093    -1.950846
 H     0.184500     1.065457    -1.793763
 C    -0.556947     3.079460    -1.840133
 H    -0.151950     3.336585    -0.850945
 H    -1.503101     3.624648    -1.980313
 H     0.159384     3.417286    -2.602933
 C    -1.353790     1.158081    -3.283215
 H    -1.503830     0.069360    -3.314178
 H    -2.322154     1.647531    -3.469415
 H    -0.665021     1.429841    -4.096700
 C    -4.352613    -0.479616    -1.199879
 C    -4.713673     0.850111    -1.422447
 H    -3.938758     1.601620    -1.565412
 C    -5.328273    -1.456414    -1.003767
 H    -5.009712    -2.487980    -0.843128
 C    -6.061529     1.199265    -1.408906
 H    -6.342486     2.243942    -1.560662
 C    -6.673168    -1.095732    -1.003871
 H    -7.436102    -1.861809    -0.845474
 C    -7.045248     0.234127    -1.197791
 H    -8.099961     0.517259    -1.187891
 C    -3.465360     0.901250     1.487773
 C    -4.670692     0.368131     1.940098
 H    -4.786060    -0.715736     1.982502
 C    -3.272912     2.280163     1.422977
 H    -2.319379     2.670192     1.070426
 C    -5.707231     1.225494     2.295005
 H    -6.658183     0.807353     2.632599
 C    -4.318437     3.128388     1.782621
 H    -4.174685     4.210110     1.724660
 C    -5.538159     2.607809     2.211999
 H    -6.355271     3.278314     2.486854
 C     0.809053     1.105037     2.163793
 H    -0.126536     0.586849     1.890851
 C     0.518597     2.574841     2.367901
 H     0.097357     3.011750     1.451402
 H     1.438405     3.122958     2.623911
 H    -0.209660     2.711029     3.180423
 C     1.411756     0.434815     3.382433
 H     1.635577    -0.623279     3.185325
 H     2.346743     0.932081     3.683347
 H     0.706917     0.481077     4.225580
 C     4.379776    -0.748496     0.925405
 C     4.761823     0.484004     1.457233
 H     3.999363     1.179938     1.804110
 C     5.337298    -1.650602     0.463478
 H     5.001964    -2.608797     0.062346
 C     6.112638     0.820318     1.488906
 H     6.410266     1.793948     1.884814
 C     6.685729    -1.306333     0.510873
 H     7.435080    -2.012269     0.144615
 C     7.078274    -0.067040     1.015670
 H     8.135493     0.205424     1.043328
 C     3.463103     1.250598    -1.341585
 C     4.670670     0.856811    -1.914764
 H     4.804018    -0.187498    -2.199948
 C     3.247786     2.576201    -0.968393
 H     2.292956     2.859590    -0.528412
 C     5.686802     1.792436    -2.080198
 H     6.639425     1.479325    -2.513368
 C     4.273278     3.504084    -1.140493
 H     4.111353     4.542469    -0.841003
 C     5.495328     3.117630    -1.688490
 H     6.296328     3.849127    -1.815455
