  78
scf done:    -2292.535083
 C     0.616625    -2.390053     2.391890
 H     1.213337    -3.269962     2.129281
 H     1.072917    -1.764386     3.163608
 C    -0.811727    -2.466151     2.292080
 H    -1.263234    -3.408195     1.961948
 H    -1.431100    -1.916719     3.007045
 H    -0.208018    -0.034411     1.839686
Ir    -0.028457    -1.201371     0.713697
 O     2.470794     0.291052     2.008768
 C     3.403365    -0.745856    -0.349313
 C     1.800961     1.679090    -0.297747
 O    -1.376759     0.466641    -1.951438
 C    -3.301599    -0.921161    -0.634622
 C    -2.200805     1.532403     0.393557
 P    -1.694487    -0.038013    -0.404642
 P     1.926043     0.019038     0.470375
 C     0.054478    -2.644398    -0.549476
 O     0.052803    -3.526265    -1.288501
 C     3.737524     0.778592     2.360211
 H     4.549129     0.192887     1.897353
 H     3.864853     1.840896     2.088475
 H     3.821982     0.688406     3.452638
 C     3.313063    -2.141705    -0.473702
 H     2.407207    -2.630021    -0.113420
 C     4.595599    -0.102308    -0.766971
 C     4.894443     1.370593    -0.673309
 H     4.215489     1.923141    -0.020070
 H     4.826828     1.843518    -1.665481
 H     5.923322     1.517077    -0.311019
 C     4.333926    -2.907514    -1.021312
 H     4.220360    -3.990576    -1.102889
 C     5.609589    -0.896381    -1.325160
 H     6.528773    -0.403157    -1.654311
 C     5.491535    -2.273715    -1.462643
 H     6.307993    -2.850179    -1.904511
 C     2.034115     1.756891    -1.678930
 H     2.284930     0.846236    -2.230302
 C     1.418103     2.838295     0.412274
 C     0.985479     2.825906     1.850448
 H     0.327382     1.971174     2.060747
 H     0.434449     3.747090     2.083169
 H     1.836361     2.752673     2.543669
 C     1.997728     2.972494    -2.351218
 H     2.196057     3.010792    -3.424817
 C     1.416618     4.056079    -0.283266
 H     1.141596     4.962929     0.262409
 C     1.721358     4.137413    -1.637597
 H     1.707790     5.105769    -2.143307
 C    -0.742339    -0.414802    -2.842560
 H     0.239758    -0.734483    -2.454767
 H    -1.353611    -1.313374    -3.037405
 H    -0.596348     0.127510    -3.787143
 C    -3.396997    -2.204095    -0.086155
 H    -2.533205    -2.591288     0.456941
 C    -4.408329    -0.380465    -1.334008
 C    -4.408375     0.989302    -1.942989
 H    -3.545280     1.127945    -2.607455
 H    -4.340547     1.765112    -1.164421
 H    -5.330610     1.160231    -2.514650
 C    -4.554852    -2.967987    -0.209303
 H    -4.600039    -3.967101     0.229905
 C    -5.559826    -1.166883    -1.449087
 H    -6.418100    -0.758217    -1.989671
 C    -5.642803    -2.443669    -0.897462
 H    -6.561368    -3.025294    -1.008981
 C    -2.719673     1.320453     1.680554
 H    -2.803041     0.295231     2.053016
 C    -2.071943     2.847336    -0.101551
 C    -1.584584     3.205622    -1.474794
 H    -2.321915     2.922480    -2.240247
 H    -0.654585     2.690949    -1.734285
 H    -1.420179     4.289138    -1.543266
 C    -3.107605     2.376323     2.493765
 H    -3.508115     2.181262     3.490909
 C    -2.458916     3.897154     0.747880
 H    -2.355099     4.921254     0.378773
 C    -2.967187     3.680353     2.022836
 H    -3.254716     4.529486     2.647638
