  90
scf done:    -2449.702893
 C    -1.164127    -2.757888    -1.627889
 H    -1.943099    -3.312761    -1.094369
 H    -1.503303    -2.351674    -2.585179
 C     0.209984    -3.140990    -1.468455
 H     0.446441    -3.995224    -0.824272
 H     0.897988    -3.026947    -2.311435
 H     0.201361    -0.603241    -1.877734
Ir    -0.167159    -1.275323    -0.425253
 O    -1.547588     1.674972    -1.252961
 C    -3.380955    -0.334499    -0.905853
 C    -2.224877     1.077991     1.324272
 O     2.060096     0.088083     1.807417
 C     3.366295    -0.965347    -0.313337
 C     2.028694     1.517048    -0.393181
 P     1.776452    -0.193074     0.189911
 P    -1.798503     0.349869    -0.302983
 C    -0.640956    -2.146392     1.213069
 O    -0.971720    -2.678586     2.178091
 C    -2.049440     2.991118    -0.990730
 H    -2.003726     3.169764     0.097350
 C    -3.486360     3.156451    -1.447363
 H    -4.156463     2.440121    -0.953316
 H    -3.572230     3.012178    -2.535188
 H    -3.836959     4.171691    -1.206842
 C    -1.104857     3.952615    -1.676738
 H    -0.084546     3.827938    -1.292933
 H    -1.092827     3.766360    -2.761891
 H    -1.423974     4.991445    -1.504710
 C    -3.803755    -0.089940    -2.213033
 H    -3.237619     0.599362    -2.841655
 C    -4.081860    -1.256563    -0.116851
 H    -3.729409    -1.481261     0.894844
 C    -4.934288    -0.740767    -2.706615
 H    -5.266033    -0.549351    -3.730251
 C    -5.217335    -1.910311    -0.597327
 C    -5.970732    -2.885810     0.259971
 H    -6.065748    -3.862865    -0.239089
 H    -5.468054    -3.045947     1.223914
 H    -6.992315    -2.528327     0.467313
 C    -5.637611    -1.635246    -1.907060
 H    -6.521844    -2.141138    -2.305046
 C    -3.532597     1.373451     1.723599
 H    -4.377757     1.098065     1.089412
 C    -1.155130     1.440577     2.152622
 H    -0.135470     1.189519     1.849709
 C    -3.754037     2.024362     2.935895
 H    -4.775585     2.250448     3.251457
 C    -1.362605     2.118104     3.357221
 C    -0.207089     2.523829     4.224872
 H    -0.164759     1.911984     5.140554
 H     0.748294     2.400046     3.697584
 H    -0.295816     3.574807     4.539884
 C    -2.680809     2.399878     3.738915
 H    -2.866926     2.922908     4.681487
 C     2.207814    -1.024991     2.694875
 H     1.869723    -1.940314     2.173698
 C     1.321403    -0.795377     3.901091
 H     0.272079    -0.668868     3.602803
 H     1.643690     0.106509     4.443081
 H     1.382265    -1.652094     4.588367
 C     3.671007    -1.178829     3.066735
 H     4.289457    -1.370171     2.179466
 H     4.034993    -0.259747     3.551730
 H     3.801979    -2.016294     3.768630
 C     3.413500    -2.347436    -0.500056
 H     2.484549    -2.918742    -0.441940
 C     4.546081    -0.214579    -0.400758
 H     4.508783     0.868049    -0.252605
 C     4.634806    -2.969560    -0.758354
 H     4.675018    -4.052494    -0.899087
 C     5.773579    -0.822860    -0.669479
 C     7.031576    -0.011662    -0.786477
 H     6.874028     1.023137    -0.451824
 H     7.846669    -0.445181    -0.186763
 H     7.382453     0.025430    -1.830834
 C     5.800531    -2.214868    -0.841487
 H     6.753622    -2.710540    -1.048360
 C     2.353384     2.555132     0.484333
 H     2.408364     2.354932     1.555127
 C     1.978055     1.762325    -1.768805
 H     1.702570     0.948696    -2.445450
 C     2.634640     3.822256    -0.026209
 H     2.891628     4.636794     0.655722
 C     2.276169     3.022053    -2.291911
 C     2.191385     3.278099    -3.767777
 H     2.407518     2.369451    -4.347410
 H     1.176451     3.609010    -4.045294
 H     2.891341     4.065318    -4.083516
 C     2.609597     4.049830    -1.399302
 H     2.844421     5.044186    -1.789515
