  98
scf done:    -3050.955069
 C     0.571023    -3.345728    -0.083619
 H     1.223927    -3.687290    -0.894464
 H     0.973615    -3.569035     0.907338
 C    -0.854528    -3.350091    -0.288431
 H    -1.240416    -3.702776    -1.249249
 H    -1.522874    -3.567586     0.550474
 H    -0.449068    -1.443311     1.303308
Ir    -0.127769    -1.327767    -0.283289
 O     1.161626     0.925359     1.756241
 C     3.136839    -0.805720     1.125660
 C     2.207906     1.204607    -0.823517
 O    -1.892197     0.791769    -2.008657
 C    -3.595224    -0.494842    -0.337986
 C    -1.813106     1.679654     0.616961
 P    -1.882597     0.193903    -0.477953
 P     1.609536     0.018554     0.462308
 C     0.116894    -1.311341    -2.189224
 O     0.196287    -1.359452    -3.336399
 C     2.090885     1.513792     2.627069
 H     2.431574     0.783425     3.380792
 H     2.969936     1.912290     2.096737
 H     1.578316     2.344194     3.134681
 C     4.462515    -0.593501     0.691620
 O     4.695181     0.481791    -0.079725
 C     5.911121     0.624234    -0.750736
 H     5.791524     1.485507    -1.421430
 H     6.747837     0.821237    -0.056934
 H     6.153298    -0.268530    -1.353624
 C     2.939672    -1.792966     2.116784
 O     1.714262    -1.836826     2.665035
 C     1.358859    -2.895196     3.505678
 H     0.284943    -2.786665     3.700160
 H     1.907559    -2.859831     4.463651
 H     1.532156    -3.874109     3.027194
 C     3.972611    -2.644865     2.525678
 H     3.793899    -3.419958     3.269605
 C     5.501533    -1.447828     1.088087
 H     6.515169    -1.292042     0.720888
 C     5.240835    -2.475586     1.984745
 H     6.051942    -3.139282     2.293986
 C     2.098497     2.604251    -0.783262
 O     1.688756     3.174042     0.370132
 C     1.937439     4.528194     0.594337
 H     1.651836     4.727990     1.635105
 H     3.004256     4.775828     0.449739
 H     1.333488     5.185448    -0.055326
 C     2.704004     0.623853    -2.009085
 O     2.899248    -0.706211    -1.946850
 C     3.369616    -1.404302    -3.064043
 H     3.429345    -2.457846    -2.763389
 H     4.373670    -1.056828    -3.365803
 H     2.677431    -1.314420    -3.917170
 C     3.012889     1.386597    -3.136641
 H     3.372812     0.914151    -4.049634
 C     2.425361     3.381705    -1.906082
 H     2.332488     4.466524    -1.868379
 C     2.861817     2.768364    -3.072033
 H     3.098925     3.379126    -3.946436
 C    -3.041464     1.344868    -2.592403
 H    -3.689221     0.549308    -2.996987
 H    -3.623067     1.955293    -1.883311
 H    -2.712706     1.991802    -3.418838
 C    -4.596507    -0.095940     0.569233
 O    -4.426978     1.077391     1.199436
 C    -5.152352     1.365915     2.357060
 H    -4.700264     2.270856     2.785032
 H    -6.217396     1.565766     2.142374
 H    -5.081728     0.546959     3.093582
 C    -3.881204    -1.600966    -1.171358
 O    -2.994894    -1.832458    -2.151941
 C    -3.155413    -2.924334    -3.009412
 H    -2.288572    -2.913375    -3.681970
 H    -4.079930    -2.838580    -3.607616
 H    -3.170962    -3.880168    -2.458308
 C    -5.034991    -2.372951    -0.996732
 H    -5.227224    -3.239338    -1.628082
 C    -5.747803    -0.873973     0.762503
 H    -6.501098    -0.572111     1.489438
 C    -5.944799    -2.010956    -0.009629
 H    -6.844564    -2.613048     0.139145
 C    -1.597433     3.006249     0.200133
 O    -1.607893     3.260520    -1.123191
 C    -1.381353     4.552596    -1.592641
 H    -1.428277     4.497421    -2.688064
 H    -2.145359     5.267183    -1.236618
 H    -0.383450     4.926479    -1.306917
 C    -1.789407     1.418721     1.997496
 O    -2.083757     0.152069     2.346369
 C    -1.537789    -0.379894     3.521957
 H    -1.767095    -1.453103     3.505291
 H    -1.993893     0.062901     4.425395
 H    -0.445065    -0.242392     3.538875
 C    -1.531623     2.416243     2.939863
 H    -1.503791     2.180711     4.003507
 C    -1.379146     4.022834     1.142074
 H    -1.229637     5.051043     0.816050
 C    -1.335414     3.718510     2.496466
 H    -1.151891     4.516190     3.221113
