  66
scf done:    -3973.294913
 C    -0.466611    -0.934275     3.826785
 H    -0.469625    -1.973766     4.168535
 H     0.249637    -0.303398     4.359684
 C    -1.684792    -0.354621     3.330109
 H    -2.595069    -0.962682     3.304328
 H    -1.876393     0.709444     3.496243
 H     0.214087     0.781082     2.091609
Ir    -0.331357    -0.704522     1.688530
 O     2.845366    -1.323551     2.333326
 C     2.400275    -2.051352    -0.291520
 C     2.583017     0.669377     0.500763
 O    -0.393572    -0.358165    -1.595832
 C    -2.907751    -0.310814    -0.581614
 C    -1.227310     2.007194    -0.495846
 P    -1.187812     0.195362    -0.239368
 P     1.874066    -0.924460     1.058408
 C    -1.074706    -2.450074     1.382075
 O    -1.570899    -3.474397     1.227297
 C     4.232320    -1.537178     2.224518
 H     4.458433    -2.448787     1.647098
 H     4.747905    -0.681386     1.753649
 H     4.620780    -1.661473     3.244962
 C     1.547904    -3.082922    -0.695458
 H     0.573424    -3.193581    -0.220764
 C     3.639854    -1.918299    -0.935023
 H     4.316708    -1.106355    -0.660450
 C     1.913950    -3.967037    -1.705517
 H     1.243360    -4.768986    -2.017678
 C     4.021103    -2.792710    -1.947202
 H     4.984228    -2.685221    -2.448597
 C     3.152199    -3.815963    -2.326694
Cl     3.615081    -4.902616    -3.589821
 C     3.037877     1.579840     1.462032
 H     3.089298     1.274271     2.510197
 C     2.490895     1.079980    -0.833723
 H     2.114673     0.386976    -1.588684
 C     3.387626     2.878016     1.103596
 H     3.734207     3.592864     1.851772
 C     2.833042     2.377508    -1.203866
 H     2.741801     2.707628    -2.239787
 C     3.271481     3.272037    -0.229605
Cl     3.638277     4.905512    -0.671291
 C    -0.635949     0.135478    -2.892718
 H    -1.704054     0.082961    -3.165340
 H    -0.298395     1.180308    -2.995849
 H    -0.065076    -0.495338    -3.589105
 C    -3.158971    -1.456041    -1.345216
 H    -2.326886    -1.984418    -1.816856
 C    -3.979001     0.333073     0.050766
 H    -3.796886     1.213728     0.672309
 C    -4.455649    -1.938886    -1.498725
 H    -4.654832    -2.830582    -2.095157
 C    -5.277989    -0.140072    -0.095208
 H    -6.115096     0.360525     0.393885
 C    -5.509742    -1.274458    -0.874755
Cl    -7.125057    -1.866250    -1.061719
 C    -0.280220     2.807580     0.152641
 H     0.402663     2.348211     0.870504
 C    -2.114518     2.611460    -1.399151
 H    -2.872330     2.011662    -1.908673
 C    -0.198923     4.172698    -0.102463
 H     0.555112     4.789857     0.388040
 C    -2.053251     3.977102    -1.654948
 H    -2.745464     4.448792    -2.354133
 C    -1.087300     4.749429    -1.008224
Cl    -0.995707     6.444811    -1.334070
