  50
scf done:    -1526.204603
 C     2.968068    -1.727829    -0.315475
 H     3.475774    -1.959156     0.627133
 H     2.766609    -2.615624    -0.923165
 C     3.274961    -0.483688    -0.980897
 H     4.005372     0.192334    -0.523627
 H     3.295634    -0.461200    -2.074731
 H     0.838067    -1.056625    -1.587918
Ir     1.290960    -0.391837    -0.153708
 O    -1.847558    -1.386103    -0.370513
 C    -0.346742    -3.336721     0.832346
 C    -1.199331    -1.002958     2.254014
 O    -0.820733     2.074734     0.345298
 C     1.147788     2.922856    -1.361156
 C    -0.980936     1.247134    -2.265263
 P     0.153736     1.472627    -0.856288
 P    -0.536578    -1.530077     0.634042
 C     1.864197     0.380822     1.505069
 O     2.185165     0.852209     2.503332
 C    -3.097822    -2.027338    -0.140133
 H    -3.061713    -2.586552     0.813579
 C    -3.349084    -3.008838    -1.268432
 H    -2.552847    -3.765756    -1.309922
 H    -3.363162    -2.478337    -2.232696
 H    -4.313311    -3.523090    -1.138042
 C    -4.169295    -0.960428    -0.028752
 H    -3.940785    -0.266148     0.792184
 H    -4.223948    -0.379271    -0.962279
 H    -5.156208    -1.410465     0.156719
 H     0.463268    -3.505830     1.556748
 H    -1.258750    -3.844554     1.181899
 H    -0.029097    -3.755786    -0.132714
 H    -0.410129    -1.131952     3.009392
 H    -1.428736     0.069661     2.173804
 H    -2.093953    -1.561688     2.568240
 C    -1.628219     3.239795     0.210017
 H    -1.520635     3.654253    -0.810161
 C    -1.146154     4.274785     1.207847
 H    -0.096326     4.539856     1.016854
 H    -1.213275     3.871103     2.229584
 H    -1.752915     5.191289     1.152587
 C    -3.076712     2.842002     0.415697
 H    -3.377519     2.085005    -0.322146
 H    -3.210906     2.411483     1.420189
 H    -3.743872     3.711824     0.319061
 H     0.542975     3.785902    -1.679984
 H     1.795949     3.211500    -0.521614
 H     1.793187     2.605474    -2.193211
 H    -1.646240     0.410857    -2.009207
 H    -1.561201     2.152021    -2.500896
 H    -0.381903     0.958381    -3.140709
