  62
scf done:    -1683.291010
 C     0.732606    -2.536027     1.398518
 H     1.321249    -3.256883     0.821023
 H     1.200910    -2.254703     2.346575
 C    -0.699828    -2.600360     1.318018
 H    -1.155115    -3.359065     0.673646
 H    -1.295898    -2.379565     2.208458
 H    -0.086678    -0.169263     1.769855
Ir    -0.007149    -0.837529     0.284262
 O     2.220291     1.097507     1.644279
 C     3.510671    -0.581214    -0.145146
 C     2.131495     1.867993    -0.997806
 O    -1.514278     1.724481    -1.230351
 C    -3.318522    -0.322092    -0.995315
 C    -2.553240     1.386331     1.298019
 P    -1.840791     0.481825    -0.157980
 P     1.947451     0.419676     0.153585
 C     0.023977    -1.632086    -1.464354
 O     0.004598    -2.084148    -2.522867
 C     3.380883     1.786083     2.022483
 H     4.236250     1.104430     2.169457
 H     3.672943     2.566677     1.297846
 H     3.168856     2.277000     2.983645
 H     3.686018    -0.988053     0.868139
 C     3.283060    -1.763427    -1.081839
 H     4.198681    -2.373199    -1.141188
 H     2.465160    -2.402713    -0.730861
 H     3.040749    -1.435536    -2.104542
 C     4.746025     0.198814    -0.590969
 H     4.971841     1.071942     0.034730
 H     5.628230    -0.461107    -0.563317
 H     4.640616     0.548434    -1.629805
 H     3.198820     2.143578    -1.004589
 C     1.721426     1.442654    -2.404113
 H     1.879205     2.271756    -3.112450
 H     2.298653     0.580112    -2.770644
 H     0.654137     1.175064    -2.420589
 C     1.318858     3.060386    -0.512442
 H     1.618353     3.390371     0.492203
 H     1.451139     3.908541    -1.204035
 H     0.253174     2.799339    -0.489681
 C    -2.422899     2.685554    -1.696185
 H    -3.121926     2.266822    -2.440348
 H    -3.008148     3.149588    -0.883244
 H    -1.836341     3.477058    -2.186862
 H    -3.031232    -0.218010    -2.058526
 C    -3.431455    -1.811966    -0.691336
 H    -4.258854    -2.248309    -1.273683
 H    -2.510178    -2.351092    -0.940714
 H    -3.636956    -1.995534     0.374256
 C    -4.666843     0.363596    -0.782328
 H    -4.656661     1.439117    -1.001731
 H    -5.422858    -0.096675    -1.438770
 H    -5.020372     0.236452     0.252298
 H    -3.457472     1.904182     0.936629
 C    -2.962995     0.398440     2.384919
 H    -3.440224     0.934189     3.220829
 H    -3.673750    -0.359239     2.023065
 H    -2.079302    -0.130173     2.771437
 C    -1.570994     2.426600     1.823790
 H    -1.370283     3.214589     1.083837
 H    -1.981801     2.907719     2.725933
 H    -0.608576     1.961013     2.087520
