  84
scf done:    -2219.829495
 C     2.255927    -2.490094    -0.167122
 H     2.870739    -2.503968    -1.072306
 H     2.840710    -2.442891     0.754536
 C     1.008769    -3.199359    -0.158344
 H     0.709077    -3.747311    -1.057860
 H     0.672434    -3.670774     0.769376
 H     0.730079    -1.200320     1.426271
Ir     0.633191    -1.068346    -0.201626
 O     3.121631     1.271797    -0.054038
 O     1.013553     2.069242    -1.048557
 O     1.313949     1.811040     1.493999
 O    -2.335769     0.652895    -0.158119
 O    -2.660581    -1.683276    -0.752546
 O    -2.098713    -0.999684     1.656023
 P    -1.606809    -0.786047     0.129164
 P     1.512882     1.013767     0.086445
 C     0.603697    -0.946486    -2.128282
 O     0.591487    -0.861922    -3.271329
 C     4.058576     1.275160     1.013499
 H     4.846840     1.981933     0.705483
 H     3.581042     1.677365     1.919902
 C     4.656503    -0.091004     1.275639
 H     5.368750     0.014685     2.113606
 H     3.861543    -0.769250     1.629503
 C     5.357487    -0.694124     0.067560
 H     6.130521     0.011366    -0.286990
 H     4.627862    -0.779740    -0.753419
 C     5.989184    -2.047210     0.349225
 H     6.741838    -1.981248     1.151856
 H     5.232784    -2.782600     0.665450
 H     6.489826    -2.452882    -0.543034
 C     1.579681     3.383857    -1.180668
 H     2.153941     3.609899    -0.266761
 C     0.435783     4.367728    -1.302074
 H    -0.204987     4.328426    -0.410269
 H    -0.180395     4.137686    -2.185106
 H     0.820453     5.393126    -1.408049
 C     2.509235     3.388335    -2.376421
 H     3.313444     2.655153    -2.228603
 H     1.954428     3.121459    -3.289129
 H     2.957163     4.383623    -2.518581
 C     0.220442     1.626819     2.400252
 H    -0.276259     0.672073     2.163080
 C    -0.759256     2.766458     2.217602
 H    -1.190481     2.739045     1.207988
 H    -0.256308     3.734365     2.368254
 H    -1.584590     2.685963     2.939531
 C     0.802158     1.538407     3.794165
 H     1.505336     0.695461     3.861110
 H     1.339160     2.464548     4.052699
 H     0.003333     1.380610     4.533951
 C    -2.284928     1.199402    -1.472743
 H    -1.319045     1.715288    -1.603353
 H    -2.342072     0.386103    -2.215679
 C    -3.453156     2.140989    -1.662068
 H    -3.414379     2.519528    -2.698785
 H    -4.389022     1.561731    -1.576194
 C    -3.481343     3.308414    -0.686427
 H    -2.538430     3.874894    -0.773364
 H    -3.501265     2.910318     0.341014
 C    -4.663989     4.238016    -0.901842
 H    -4.652742     4.675191    -1.913513
 H    -5.619344     3.700536    -0.788450
 H    -4.663502     5.069585    -0.180887
 C    -2.336269    -2.950528    -1.327259
 H    -1.276019    -2.924498    -1.631185
 C    -3.210418    -3.111965    -2.551675
 H    -3.029480    -2.294646    -3.264801
 H    -4.274961    -3.097168    -2.271377
 H    -2.995596    -4.065712    -3.055901
 C    -2.519632    -4.050327    -0.301313
 H    -1.863812    -3.881456     0.565094
 H    -3.563680    -4.082857     0.047700
 H    -2.267789    -5.029927    -0.734384
 C    -3.482898    -0.908448     2.040654
 H    -4.099111    -0.956954     1.127724
 C    -3.715648     0.415191     2.738393
 H    -3.481251     1.245994     2.060471
 H    -3.076515     0.494431     3.631651
 H    -4.765815     0.503498     3.055344
 C    -3.781417    -2.106364     2.916190
 H    -3.602812    -3.041928     2.368582
 H    -3.133407    -2.098885     3.805899
 H    -4.830390    -2.089973     3.247876
