  88
scf done:    -2299.298378
 C     0.573048    -2.876636    -1.026428
 H     1.201218    -2.986952    -1.916860
 H     0.831722    -3.579484    -0.227310
 C    -0.803634    -2.508086    -1.202960
 H    -1.170092    -2.335045    -2.221437
 H    -1.560157    -2.922967    -0.529614
 H    -0.070424    -1.620690     1.071426
Ir     0.265223    -0.852474    -0.338132
 C     1.954349    -0.298147     2.750846
 C     3.455552    -1.704877     0.769407
 C     3.281409     1.119950     0.499364
 C    -1.228176     2.355632     0.433485
 C    -2.720608     0.430438    -1.337689
 C    -2.688080     0.014192     1.545852
 P    -1.582724     0.525877     0.133307
 P     2.181309    -0.331292     0.891775
 C     0.721500     0.007475    -1.977981
 O     1.016568     0.531447    -2.963300
 H     1.703554    -1.357549     2.943904
 C     3.194774     0.062062     3.559144
 H     3.015815    -0.136143     4.627980
 H     4.086105    -0.512802     3.268272
 H     3.444690     1.129613     3.469378
 C     0.756872     0.543291     3.167734
 H    -0.135425     0.228826     2.614373
 H     0.560304     0.427234     4.245781
 H     0.918826     1.612590     2.967437
 H     2.857147    -2.622744     0.677258
 H     4.021001    -1.761922     1.710661
 C     4.406330    -1.551892    -0.378858
 C     5.744700    -1.210053    -0.148141
 H     6.100009    -1.102119     0.880911
 C     3.973996    -1.685551    -1.705415
 H     2.931248    -1.942532    -1.895806
 C     6.626675    -1.003878    -1.207175
 H     7.667393    -0.740328    -1.003000
 C     4.852257    -1.474081    -2.765430
 H     4.491864    -1.577464    -3.791806
 C     6.182047    -1.131706    -2.521891
 H     6.870215    -0.967045    -3.354340
 H     3.709778     0.860920    -0.480131
 H     4.119265     1.112113     1.214189
 C     2.658483     2.479640     0.423587
 C     2.515566     3.289629     1.557684
 H     2.849532     2.919972     2.529648
 C     2.252697     2.998253    -0.813058
 H     2.362945     2.388100    -1.712231
 C     1.976093     4.570815     1.464222
 H     1.877483     5.183857     2.363477
 C     1.731682     4.285935    -0.912828
 H     1.435864     4.672774    -1.890875
 C     1.584704     5.076654     0.225530
 H     1.175344     6.086681     0.147188
 H    -0.149724     2.319268     0.652627
 C    -1.389917     3.172305    -0.843306
 H    -1.035480     4.198413    -0.668501
 H    -0.785634     2.759516    -1.664718
 H    -2.435345     3.230534    -1.180358
 C    -1.904259     3.006833     1.634196
 H    -1.690624     2.471162     2.569777
 H    -1.516281     4.031339     1.752318
 H    -2.997742     3.081083     1.536975
 H    -2.626051    -0.618979    -1.649663
 H    -2.200704     1.003174    -2.124018
 C    -4.179745     0.794853    -1.298194
 C    -4.701280     1.874917    -0.577874
 H    -4.034705     2.501887     0.013094
 C    -5.078602     0.013332    -2.040374
 H    -4.695948    -0.841916    -2.604281
 C    -6.065714     2.163234    -0.592472
 H    -6.443241     3.010576    -0.014911
 C    -6.440813     0.298607    -2.062663
 H    -7.115855    -0.329233    -2.649423
 C    -6.942909     1.376784    -1.334512
 H    -8.012177     1.600064    -1.344149
 H    -3.598010     0.630577     1.501913
 H    -2.158048     0.278148     2.471013
 C    -3.034037    -1.445051     1.548491
 C    -2.267943    -2.359144     2.282132
 H    -1.433659    -1.995686     2.885539
 C    -4.115571    -1.931111     0.804288
 H    -4.742304    -1.232453     0.246741
 C    -2.552070    -3.721853     2.246778
 H    -1.936563    -4.418146     2.821433
 C    -4.402489    -3.294133     0.767324
 H    -5.249470    -3.651343     0.176346
 C    -3.615983    -4.196712     1.480825
 H    -3.836559    -5.266260     1.448306
