 104
scf done:    -2233.266730
 C    -1.458632    -3.245804    -1.797083
 H    -2.026043    -3.906814    -1.133259
 H    -2.040396    -2.898756    -2.656845
 C    -0.043320    -3.475651    -1.961247
 H     0.423375    -4.304293    -1.418078
 H     0.411925    -3.293813    -2.939489
 H    -0.412612    -0.952011    -2.291520
Ir    -0.355958    -1.678171    -0.815002
 O    -1.263911     1.481859    -0.935872
 C    -3.456593    -0.146296    -1.146049
 C    -2.215639     0.387984     1.419339
 O     1.975444     0.289394     0.780158
 C     3.125811    -1.584239    -0.806349
 C     1.834417     0.868694    -1.807212
 P     1.635335    -0.523884    -0.636773
 P    -1.817898     0.034899    -0.342820
 C    -0.276638    -2.625133     0.840471
 O    -0.219001    -3.227871     1.822265
 C    -1.581079     2.783137    -0.489518
 H    -1.671697     3.412365    -1.391898
 H    -2.562199     2.816591     0.014896
 C    -0.498209     3.329603     0.418895
 H    -0.440956     2.709209     1.327748
 H     0.472140     3.205341    -0.088662
 C    -0.706532     4.788319     0.794924
 H    -1.685640     4.906327     1.293071
 H    -0.764183     5.396934    -0.125100
 C     0.392071     5.330279     1.695294
 H     0.443361     4.770832     2.642628
 H     1.378731     5.245139     1.211923
 H     0.231246     6.390577     1.941287
 H    -3.835718    -1.121100    -0.791917
 H    -3.211636    -0.296642    -2.209116
 C    -4.491226     0.952370    -0.955381
 H    -4.609526     1.174569     0.119620
 H    -4.132673     1.884925    -1.425330
 C    -5.874740     0.621747    -1.525382
 H    -6.213356    -0.314166    -1.041580
 C    -6.870074     1.719992    -1.169428
 H    -6.928885     1.874986    -0.080526
 H    -7.881881     1.478393    -1.529951
 H    -6.575024     2.679195    -1.627092
 C    -5.839497     0.384828    -3.030866
 H    -6.845484     0.164149    -3.419765
 H    -5.188546    -0.458870    -3.303496
 H    -5.467584     1.279557    -3.558361
 H    -2.762349     1.339365     1.523099
 H    -1.237296     0.524897     1.905049
 C    -2.998231    -0.744387     2.072014
 H    -4.025159    -0.751055     1.668775
 H    -2.556675    -1.715130     1.787058
 C    -3.074226    -0.672548     3.600360
 H    -3.497756     0.313619     3.870653
 C    -4.017492    -1.749698     4.124039
 H    -5.022893    -1.654840     3.684721
 H    -4.121237    -1.695926     5.218696
 H    -3.637135    -2.753945     3.873994
 C    -1.701500    -0.794486     4.254666
 H    -1.786345    -0.783275     5.352137
 H    -1.029986     0.031097     3.974032
 H    -1.212505    -1.738150     3.962233
 C     1.794950    -0.363844     2.017615
 H     0.718075    -0.537131     2.193168
 H     2.281257    -1.356767     2.013992
 C     2.381826     0.488383     3.121338
 H     2.264165    -0.061009     4.071772
 H     3.468257     0.590863     2.952535
 C     1.750622     1.868031     3.234646
 H     0.663725     1.754096     3.400563
 H     1.854171     2.383326     2.266690
 C     2.352995     2.713846     4.343502
 H     2.231896     2.233764     5.328003
 H     3.432353     2.867650     4.183844
 H     1.882887     3.707623     4.398227
 H     3.031400    -2.066839    -1.793777
 H     2.956713    -2.396785    -0.080574
 C     4.487806    -0.934028    -0.607991
 H     4.743333    -0.348321    -1.506109
 H     4.432751    -0.208809     0.222932
 C     5.624972    -1.920688    -0.322973
 H     5.595374    -2.704292    -1.103469
 C     6.973338    -1.215461    -0.414946
 H     7.126505    -0.765642    -1.408379
 H     7.806484    -1.910459    -0.227214
 H     7.041092    -0.405599     0.330842
 C     5.463729    -2.598555     1.033744
 H     6.278201    -3.315284     1.220498
 H     4.516765    -3.153296     1.115511
 H     5.484360    -1.851066     1.845105
 H     0.812225     1.266428    -1.907695
 H     2.076676     0.395073    -2.773159
 C     2.799604     1.988181    -1.438551
 H     2.649966     2.244543    -0.378303
 H     3.846260     1.650728    -1.519374
 C     2.620816     3.250797    -2.285782
 H     1.558844     3.552906    -2.204456
 C     3.471896     4.386656    -1.730501
 H     3.223115     4.596036    -0.677871
 H     3.329085     5.316380    -2.303073
 H     4.543941     4.131191    -1.772779
 C     2.922147     3.007819    -3.760059
 H     2.789073     3.926871    -4.351759
 H     2.265298     2.238549    -4.193026
 H     3.965027     2.673735    -3.894786
