 104
scf done:    -2233.262165
 C    -0.517466    -2.319717    -2.921809
 H    -1.121415    -3.194884    -2.659199
 H    -0.930441    -1.749508    -3.759999
 C     0.916977    -2.396066    -2.772882
 H     1.359513    -3.327972    -2.404148
 H     1.551235    -1.878734    -3.499208
 H     0.287141     0.068452    -2.406409
Ir     0.093069    -1.098383    -1.263295
 O    -1.286839     1.851495    -0.699369
 C    -3.152721     0.143064    -1.743066
 C    -2.343616    -0.041957     1.039071
 O     0.999117     0.415782     1.482419
 C     3.229216    -0.735845     0.369907
 C     2.096311     1.703835    -0.730837
 P     1.630803     0.082324    -0.022192
 P    -1.683354     0.238673    -0.653205
 C    -0.034649    -2.489919     0.040801
 O    -0.067023    -3.307217     0.853435
 C    -1.819384     2.880893     0.106629
 H    -1.920220     3.770246    -0.539118
 H    -2.835328     2.637807     0.463515
 C    -0.909516     3.182641     1.281213
 H    -0.772890     2.258278     1.864031
 H     0.089970     3.439493     0.890503
 C    -1.417568     4.299160     2.179031
 H    -2.420075     4.036306     2.561638
 H    -1.556177     5.219843     1.584759
 C    -0.484981     4.579281     3.346943
 H    -0.358869     3.684005     3.977296
 H     0.516185     4.875247     2.993493
 H    -0.863645     5.388466     3.989273
 H    -2.761951     0.318644    -2.758870
 H    -3.449232    -0.920263    -1.722641
 C    -4.333611     1.053945    -1.444320
 H    -4.668357     0.913884    -0.400823
 H    -4.015159     2.106792    -1.526631
 C    -5.514864     0.818340    -2.376674
 H    -5.836495    -0.236041    -2.297108
 H    -5.184095     0.950251    -3.422731
 C    -6.700876     1.731896    -2.100711
 H    -7.023084     1.599122    -1.052383
 H    -6.372567     2.783614    -2.179955
 C    -7.878216     1.491762    -3.031817
 H    -8.718731     2.166023    -2.807985
 H    -8.249511     0.457729    -2.947334
 H    -7.593877     1.652369    -4.084195
 H    -1.444391    -0.007572     1.674678
 H    -3.014001     0.768873     1.364907
 C    -3.033575    -1.397901     1.167067
 H    -4.083407    -1.317994     0.835762
 H    -2.559854    -2.124777     0.485174
 C    -2.974911    -1.953019     2.582837
 H    -3.465529    -1.248367     3.279608
 H    -1.917105    -2.001014     2.895217
 C    -3.594108    -3.334824     2.726711
 H    -4.650427    -3.300042     2.405406
 H    -3.087086    -4.022313     2.027327
 C    -3.502817    -3.885569     4.140600
 H    -3.948119    -4.889063     4.217130
 H    -4.025748    -3.233722     4.859289
 H    -2.453689    -3.960776     4.469227
 C     1.663707     0.858374     2.647417
 H     2.730568     0.576154     2.629662
 H     1.615855     1.960213     2.704763
 C     0.984267     0.246525     3.855827
 H     1.452764     0.664870     4.764268
 H    -0.069043     0.579860     3.871269
 C     1.040309    -1.273872     3.883457
 H     2.097033    -1.596611     3.885634
 H     0.610439    -1.661657     2.946294
 C     0.314586    -1.880473     5.072697
 H     0.748038    -1.542895     6.028085
 H    -0.750075    -1.596134     5.076122
 H     0.361154    -2.979814     5.054514
 H     3.860080    -0.103871     1.017034
 H     2.960731    -1.633622     0.953128
 C     3.986246    -1.131914    -0.891458
 H     3.290794    -1.650601    -1.572876
 H     4.316562    -0.224154    -1.427190
 C     5.193293    -2.015770    -0.612349
 H     4.859244    -2.925249    -0.080574
 H     5.882354    -1.499303     0.081341
 C     5.949000    -2.417356    -1.871295
 H     5.251733    -2.924597    -2.561011
 H     6.279943    -1.506013    -2.400476
 C     7.145492    -3.314176    -1.598282
 H     7.669831    -3.587023    -2.526638
 H     6.838258    -4.249469    -1.103154
 H     7.875126    -2.818219    -0.937702
 H     2.500755     1.459548    -1.728201
 H     1.127390     2.193055    -0.922148
 C     3.044786     2.607064     0.041074
 H     2.617955     2.843326     1.029504
 H     3.998121     2.085786     0.238830
 C     3.332696     3.912049    -0.689781
 H     2.376926     4.425840    -0.900199
 H     3.772490     3.688080    -1.678496
 C     4.253984     4.850303     0.076854
 H     3.806714     5.068288     1.063391
 H     5.204602     4.329813     0.290290
 C     4.536257     6.152098    -0.655438
 H     5.202719     6.809173    -0.076444
 H     3.606195     6.709887    -0.850743
 H     5.016580     5.965901    -1.629465
