  80
scf done:    -2442.957128
 C    -0.468456     0.518746    -3.447757
 H    -1.077820    -0.240729    -3.946958
 H    -0.868898     1.532609    -3.539243
 C     0.946144     0.332230    -3.349012
 H     1.402258    -0.566614    -3.773706
 H     1.605580     1.203839    -3.354495
 H     0.275218     1.602238    -1.231152
Ir     0.057328    -0.004092    -1.405404
 C    -2.856731     1.906165    -0.441093
 O    -3.021917    -0.809258    -0.847101
 O    -2.063970     0.121555     1.357008
 C     2.113671    -1.244589     1.332772
 O     3.262927    -0.349687    -1.015643
 O     2.389892     1.363855     0.599652
 P     1.922163    -0.081169    -0.090782
 P    -1.910154     0.318203    -0.304355
 C    -0.205363    -1.892794    -1.694233
 O    -0.381022    -3.012374    -1.873042
 H    -3.496811     1.696052    -1.316913
 C    -3.752786     2.209801     0.756024
 H    -4.364056     3.097540     0.529993
 H    -4.430960     1.382342     1.000728
 H    -3.147244     2.427539     1.646803
 C    -1.963227     3.091727    -0.785400
 H    -1.395665     2.923722    -1.709217
 H    -2.589752     3.987426    -0.919888
 H    -1.242607     3.302268     0.016827
 C    -4.359172    -0.825007    -0.551968
 C    -4.818263    -1.303014     0.677306
 H    -4.102867    -1.652649     1.422490
 C    -5.263395    -0.398094    -1.525788
 H    -4.878409    -0.056598    -2.488822
 C    -6.187478    -1.326654     0.933259
 H    -6.545574    -1.698745     1.896134
 C    -6.630223    -0.426268    -1.258603
 H    -7.335671    -0.090197    -2.022289
 C    -7.097019    -0.884234    -0.027077
 H    -8.168941    -0.904742     0.180951
 C    -1.544214    -0.914712     2.064005
 C    -1.175073    -0.661074     3.389424
 H    -1.329232     0.341048     3.793180
 C    -1.398783    -2.201023     1.532338
 H    -1.724057    -2.411200     0.513708
 C    -0.627542    -1.678428     4.165297
 H    -0.335222    -1.468902     5.196971
 C    -0.850442    -3.210909     2.321717
 H    -0.734330    -4.210518     1.896506
 C    -0.452248    -2.956723     3.632513
 H    -0.019801    -3.752920     4.241911
 H     1.125235    -1.146736     1.815682
 C     2.241741    -2.677261     0.827675
 H     2.141865    -3.374420     1.673183
 H     1.461641    -2.934875     0.097907
 H     3.223179    -2.847866     0.362243
 C     3.185474    -0.888880     2.355958
 H     3.111422     0.157775     2.682046
 H     3.061465    -1.531911     3.241994
 H     4.199115    -1.049992     1.962728
 C     4.579980    -0.433119    -0.650044
 C     5.269402    -1.599303    -0.987606
 H     4.730280    -2.397490    -1.501323
 C     5.246554     0.625064    -0.028256
 H     4.695556     1.532669     0.214124
 C     6.620802    -1.719733    -0.674110
 H     7.154798    -2.635763    -0.938067
 C     6.597401     0.489641     0.284755
 H     7.115520     1.315380     0.778577
 C     7.289436    -0.679499    -0.029428
 H     8.348489    -0.776178     0.219022
 C     1.571207     2.336759     1.083126
 C     1.755232     3.642276     0.624892
 H     2.502756     3.827452    -0.148375
 C     0.610896     2.060916     2.055947
 H     0.475301     1.036738     2.404075
 C     0.988097     4.673768     1.160067
 H     1.136134     5.695292     0.801945
 C    -0.157886     3.098520     2.578164
 H    -0.911279     2.878056     3.338506
 C     0.029801     4.408483     2.139392
 H    -0.573496     5.219258     2.552893
