  56
scf done:    -1604.759418
 C    -3.768258    -0.278672     0.393636
 H    -4.024518    -0.511029     1.432749
 H    -4.307233     0.589583     0.001527
 C    -3.452868    -1.365372    -0.502079
 H    -3.478881    -2.390263    -0.116865
 H    -3.759894    -1.292106    -1.549929
 H    -2.102063     0.676937    -1.329145
Ir    -1.662453    -0.260553    -0.048613
 O     0.303278     2.366065    -0.401068
 C    -1.918548     3.066469     1.016346
 C     0.219500     1.637869     2.248744
 O     1.495740    -1.016120    -0.521568
 C    -0.063801    -2.631728    -2.096055
 C     0.481086     0.067380    -2.831646
 P     0.075269    -0.954900    -1.379413
 P    -0.747185     1.701968     0.697902
 C    -1.149235    -1.367027     1.428469
 O    -0.789397    -2.018096     2.305921
 C     1.078410     3.528057    -0.182277
 H     1.030124     4.114013    -1.116131
 H     0.642231     4.160861     0.611536
 C     2.524572     3.197427     0.142520
 H     3.086411     4.147894     0.182708
 H     2.589966     2.760857     1.153598
 C     3.166596     2.244271    -0.854571
 H     3.069901     2.660709    -1.873339
 H     2.586722     1.308444    -0.849872
 C     4.627580     1.958607    -0.549975
 H     5.237968     2.875203    -0.591974
 H     4.748338     1.531625     0.458844
 H     5.058373     1.240415    -1.264527
 H    -2.627975     2.726177     1.784581
 H    -1.433616     3.994922     1.354703
 H    -2.481835     3.253881     0.091623
 H     0.626163     2.614373     2.552131
 H    -0.442400     1.262176     3.043030
 H     1.036980     0.915274     2.111832
 C     2.714078    -1.533053    -1.015125
 H     2.548446    -2.494113    -1.535856
 H     3.160389    -0.832183    -1.744564
 C     3.648058    -1.741375     0.157710
 H     4.630766    -2.060113    -0.232204
 H     3.810400    -0.766913     0.649703
 C     3.127848    -2.749944     1.172289
 H     2.998841    -3.728172     0.674854
 H     2.120836    -2.439328     1.494178
 C     4.035360    -2.903510     2.381224
 H     5.044633    -3.238077     2.090588
 H     4.148685    -1.947087     2.916949
 H     3.634440    -3.637037     3.096719
 H     0.749084    -2.891961    -2.790969
 H    -0.104745    -3.362800    -1.275621
 H    -1.023776    -2.672095    -2.630863
 H     0.619562     1.098980    -2.479865
 H     1.377299    -0.288015    -3.362334
 H    -0.381227     0.044380    -3.513447
