 102
scf done:    -2606.830157
 C     0.605927    -1.061772    -3.565696
 H     1.287042    -0.494670    -4.209698
 H     0.916775    -2.103409    -3.429096
 C    -0.806631    -0.761779    -3.619722
 H    -1.151249     0.022437    -4.302433
 H    -1.522236    -1.584248    -3.515307
 H    -0.360164    -1.608663    -1.265963
Ir     0.003403    -0.082696    -1.750682
 O     1.232974    -0.211787     1.345785
 C     2.584443    -1.941695    -0.389230
 C     3.112235     0.977844    -0.386505
 O    -1.568893     2.276458    -0.178052
 C    -3.396180     0.469641    -1.321041
 C    -1.980983     0.098194     1.319653
 P    -1.762853     0.649642    -0.436630
 P     1.730099    -0.274220    -0.231643
 C     0.383619     1.677417    -2.397336
 O     0.595257     2.740314    -2.781899
 C     1.950327    -0.625842     2.518570
 H     3.023278    -0.689980     2.275880
 C     1.438137    -1.975307     2.990332
 H     1.561121    -2.763765     2.235430
 H     0.366553    -1.915887     3.231337
 H     1.981070    -2.287508     3.895333
 C     1.751266     0.432577     3.583279
 H     2.147541     1.400801     3.256722
 H     0.678732     0.543880     3.806975
 H     2.267453     0.141502     4.510034
 H     2.085459    -2.586207     0.347161
 H     2.252474    -2.292867    -1.374896
 C     4.073678    -2.015550    -0.260515
 C     4.673201    -2.354614     0.957942
 H     4.038116    -2.614471     1.808049
 C     4.896557    -1.728728    -1.372915
 C     4.305035    -1.452223    -2.726291
 H     3.504794    -0.696385    -2.701018
 H     3.849162    -2.363339    -3.148532
 H     5.074959    -1.109558    -3.430836
 C     6.057366    -2.372749     1.108082
 H     6.498694    -2.638657     2.071381
 C     6.285221    -1.740182    -1.202658
 H     6.922565    -1.506493    -2.059857
 C     6.869045    -2.048899     0.024037
 H     7.956606    -2.048475     0.127081
 H     3.967341     0.445908    -0.824099
 H     2.749489     1.685771    -1.143482
 C     3.569767     1.712395     0.837052
 C     4.727984     1.295791     1.503582
 H     5.266688     0.419795     1.131443
 C     2.872716     2.846609     1.302064
 C     1.615417     3.311060     0.632740
 H     0.839741     2.530057     0.618012
 H     1.788521     3.596646    -0.417202
 H     1.198033     4.186428     1.149252
 C     5.200163     1.974360     2.623912
 H     6.104015     1.627726     3.130410
 C     3.374430     3.529769     2.415782
 H     2.840764     4.414561     2.773848
 C     4.521793     3.102219     3.079911
 H     4.885349     3.651755     3.951519
 C    -2.519624     3.324084    -0.054104
 H    -3.370533     3.117040    -0.728349
 C    -1.829993     4.583105    -0.543383
 H    -1.426664     4.427950    -1.553683
 H    -0.991512     4.841673     0.120272
 H    -2.533007     5.429010    -0.564063
 C    -3.032583     3.459001     1.368681
 H    -3.636368     2.592614     1.673233
 H    -2.186374     3.559547     2.065061
 H    -3.667722     4.352896     1.462392
 H    -3.465848     1.391550    -1.921860
 H    -3.176735    -0.324678    -2.045699
 C    -4.683650     0.191890    -0.602213
 C    -5.481180     1.239363    -0.123445
 H    -5.150639     2.270143    -0.267375
 C    -5.142921    -1.136008    -0.456882
 C    -4.372524    -2.297374    -1.010804
 H    -3.335289    -2.317500    -0.646321
 H    -4.330626    -2.258913    -2.112220
 H    -4.840954    -3.248599    -0.726042
 C    -6.699145     1.003012     0.509014
 H    -7.300039     1.841700     0.868028
 C    -6.363804    -1.356686     0.189965
 H    -6.712200    -2.385952     0.309942
 C    -7.140069    -0.307089     0.674050
 H    -8.090202    -0.513256     1.172423
 H    -0.984603     0.330963     1.730878
 H    -2.702060     0.789651     1.767591
 C    -2.344431    -1.326952     1.621985
 C    -1.517046    -2.370065     1.189088
 H    -0.619966    -2.117935     0.625248
 C    -3.491245    -1.635631     2.384888
 C    -4.367263    -0.564509     2.965807
 H    -4.782562     0.095398     2.190392
 H    -3.807843     0.068640     3.674232
 H    -5.213662    -1.004908     3.509530
 C    -1.828639    -3.702190     1.444591
 H    -1.169167    -4.494499     1.082198
 C    -3.792886    -2.980490     2.627606
 H    -4.687488    -3.219286     3.209396
 C    -2.983145    -4.011617     2.157709
 H    -3.248347    -5.051860     2.361815
