  78
scf done:    -2141.232982
 C    -0.035502    -2.270083    -2.361633
 H    -0.740218    -3.088435    -2.182206
 H    -0.171124    -1.782094    -3.330617
 C     1.278552    -2.370184    -1.797914
 H     1.532460    -3.257093    -1.208872
 H     2.128641    -1.959908    -2.350082
 H     0.741376     0.100776    -1.918268
Ir     0.156771    -0.851373    -0.736630
 O    -1.328372     1.836091    -1.893302
 O    -2.931636    -0.050197    -1.851093
 O    -2.529431     1.138121     0.233808
 O     1.110082     1.186451     1.791946
 O     2.502648    -0.799503     1.689212
 O     2.909449     0.996093     0.036328
 P     1.660419     0.145234     0.660440
 P    -1.659314     0.514880    -1.007782
 C    -0.555166    -2.075485     0.578496
 O    -0.980477    -2.827860     1.331981
 C    -2.354349     2.721579    -2.302237
 H    -1.864172     3.637721    -2.658038
 H    -2.946788     2.278089    -3.116061
 H    -3.028376     2.968263    -1.466866
 C    -3.451884    -1.360036    -1.665946
 H    -4.129663    -1.521629    -2.518267
 H    -2.628572    -2.088888    -1.742746
 C    -4.189251    -1.532054    -0.352545
 H    -4.564239    -2.570320    -0.315677
 H    -3.469609    -1.444655     0.479114
 C    -5.328773    -0.547632    -0.138015
 H    -6.088784    -0.690729    -0.926873
 H    -4.932359     0.471188    -0.266252
 C    -5.969225    -0.679085     1.233775
 H    -6.376519    -1.690150     1.397607
 H    -5.232025    -0.489134     2.030958
 H    -6.794081     0.037266     1.367353
 C    -1.921890     1.960211     1.224871
 H    -0.825913     1.867942     1.180918
 H    -2.188404     3.009214     1.007038
 C    -2.416758     1.557210     2.596589
 H    -1.995094     2.269232     3.328252
 H    -3.513594     1.682137     2.637936
 C    -2.040535     0.133293     2.978212
 H    -0.946493     0.021938     2.900141
 H    -2.467369    -0.552359     2.229580
 C    -2.517026    -0.268744     4.363029
 H    -2.084177     0.378513     5.143272
 H    -3.613761    -0.194214     4.446843
 H    -2.236417    -1.306641     4.597684
 C     1.945086     1.680565     2.824573
 H     2.178400     0.885418     3.547040
 H     2.885010     2.083284     2.416139
 H     1.391002     2.486395     3.324793
 C     3.038789    -2.061771     1.323409
 H     3.356606    -2.522350     2.271696
 H     2.239245    -2.688140     0.893812
 C     4.203962    -1.958625     0.359917
 H     4.550469    -2.984746     0.142924
 H     3.837870    -1.553226    -0.598790
 C     5.357032    -1.107392     0.870050
 H     5.751899    -1.549127     1.802420
 H     4.961787    -0.115445     1.138658
 C     6.475763    -0.955966    -0.146949
 H     6.898374    -1.932503    -0.434699
 H     6.108640    -0.473515    -1.067462
 H     7.299555    -0.339659     0.244057
 C     2.923123     1.617040    -1.242772
 H     3.963417     1.953158    -1.377185
 H     2.705679     0.861706    -2.016784
 C     1.954555     2.775000    -1.367500
 H     2.069114     3.189143    -2.385306
 H     0.923527     2.387471    -1.325923
 C     2.133252     3.877468    -0.335264
 H     3.140969     4.320234    -0.428322
 H     2.087719     3.431771     0.670276
 C     1.072460     4.959839    -0.454759
 H     1.096520     5.439823    -1.446659
 H     0.064483     4.534209    -0.321545
 H     1.205676     5.749580     0.300268
