  90
scf done:    -2449.690943
 C    -0.602446    -2.400678    -2.379849
 H    -0.067033    -2.374770    -3.335358
 H    -0.317770    -3.249890    -1.749801
 C    -1.968382    -1.938993    -2.335947
 H    -2.432311    -1.579002    -3.261110
 H    -2.670090    -2.440974    -1.663254
 H    -0.991966    -1.490810    -0.038471
Ir    -0.685559    -0.533409    -1.323826
 O     1.192565     0.092533     1.322458
 C     2.409882    -1.787937    -0.340310
 C     2.386425     1.147789    -0.940624
 O    -0.719719     2.503265    -0.181961
 C    -3.265153     1.943316    -0.931409
 C    -2.141110     1.014385     1.610388
 P    -1.739589     1.174677    -0.198281
 P     1.348583    -0.251942    -0.291400
 C    -0.396631     0.537085    -2.897562
 O    -0.240321     1.182108    -3.835639
 C     2.173356    -0.139983     2.306869
 H     2.199451    -1.206768     2.591353
 H     3.177184     0.178542     1.989668
 H     1.889096     0.445665     3.192372
 H     2.114400    -2.368323     0.547872
 H     1.996412    -2.329043    -1.203303
 C     3.898094    -1.674383    -0.470198
 C     4.473131    -1.512467    -1.739532
 H     3.830262    -1.492016    -2.623973
 C     4.746965    -1.738204     0.637355
 H     4.316874    -1.888903     1.630625
 C     5.852081    -1.395261    -1.879947
 H     6.288826    -1.273030    -2.874027
 C     6.135924    -1.618058     0.517536
 C     7.004528    -1.664248     1.740695
 H     6.787033    -0.814550     2.407825
 H     6.830932    -2.584402     2.320104
 H     8.071543    -1.623178     1.481338
 C     6.679921    -1.441785    -0.758365
 H     7.763151    -1.350786    -0.875623
 H     2.943738     0.754740    -1.804441
 H     1.629266     1.848477    -1.320672
 C     3.279108     1.849242     0.036541
 C     2.712605     2.723841     0.972904
 H     1.632000     2.877979     0.962200
 C     4.662257     1.643261     0.057178
 H     5.112164     0.966468    -0.673284
 C     3.515718     3.349590     1.921284
 H     3.066286     4.021631     2.657002
 C     5.484267     2.274573     0.996850
 C     6.972182     2.073131     0.971055
 H     7.240883     1.157324     0.426499
 H     7.473670     2.916856     0.468225
 H     7.389753     2.008891     1.987192
 C     4.890507     3.122370     1.939471
 H     5.514918     3.617636     2.688567
 C    -1.053224     3.752175     0.367658
 H    -1.729111     4.327141    -0.288349
 H    -1.516681     3.668730     1.365828
 H    -0.119738     4.324523     0.473131
 H    -3.349681     2.976992    -0.563997
 H    -3.067361     1.989913    -2.014026
 C    -4.533731     1.201977    -0.634840
 C    -4.749886    -0.088187    -1.131292
 H    -3.982959    -0.559891    -1.747192
 C    -5.516179     1.786785     0.171787
 H    -5.355635     2.799522     0.556010
 C    -5.920964    -0.768162    -0.812368
 H    -6.079832    -1.778141    -1.197639
 C    -6.700096     1.116955     0.500429
 C    -7.719258     1.753524     1.400868
 H    -7.527898     1.496000     2.456326
 H    -7.698813     2.850287     1.323494
 H    -8.737088     1.412317     1.162468
 C    -6.888619    -0.174295    -0.004273
 H    -7.806230    -0.718155     0.236913
 H    -1.184170     1.280742     2.086357
 H    -2.888752     1.778635     1.874307
 C    -2.579984    -0.343849     2.076597
 C    -3.931969    -0.686065     2.177949
 H    -4.700631     0.045486     1.923522
 C    -1.618558    -1.303773     2.403545
 H    -0.564527    -1.034665     2.311132
 C    -4.299982    -1.964207     2.587683
 H    -5.359525    -2.222013     2.659303
 C    -1.971285    -2.594262     2.807306
 C    -0.901167    -3.608477     3.091803
 H    -0.122397    -3.197721     3.753348
 H    -1.310038    -4.511282     3.567450
 H    -0.402895    -3.919390     2.157978
 C    -3.329003    -2.914973     2.897076
 H    -3.627744    -3.919082     3.211182
