  96
scf done:    -2376.935667
 C     0.830128     0.762358    -3.529373
 H     1.814282     1.151149    -3.810477
 H     0.591071    -0.197024    -3.996067
 C    -0.228177     1.691014    -3.243890
 H    -0.020954     2.763948    -3.316766
 H    -1.255204     1.428256    -3.512231
 H    -0.678217    -0.386721    -1.816448
Ir     0.430329     0.741645    -1.411026
 O     0.861605    -1.752604     0.761237
 O     1.446621    -2.332205    -1.651539
 O     3.045606    -1.055201    -0.114847
 O    -0.432602     0.964107     1.886478
 O    -1.820099     2.456609     0.513395
 O    -2.141101    -0.073731     0.444285
 P    -0.985502     1.051182     0.349855
 P     1.477137    -1.101079    -0.595137
 C     1.694094     2.148470    -1.045738
 O     2.434519     3.004727    -0.846638
 C     1.539687    -2.101339     1.958657
 H     2.074568    -3.058534     1.816579
 H     2.294798    -1.337056     2.197813
 C     0.515642    -2.216912     3.065697
 H     1.054247    -2.420661     4.007979
 H     0.022844    -1.236859     3.179330
 C    -0.535518    -3.288833     2.818124
 H    -0.038580    -4.267995     2.696450
 H    -1.027259    -3.073912     1.855693
 C    -1.575344    -3.376433     3.922512
 H    -1.114681    -3.617445     4.894187
 H    -2.109676    -2.420105     4.042754
 H    -2.327976    -4.150980     3.709973
 C     1.871594    -3.655198    -1.344754
 H     2.219457    -4.076064    -2.301389
 H     2.738382    -3.626106    -0.661536
 C     0.750484    -4.503661    -0.771953
 H     1.118229    -5.543664    -0.711524
 H     0.539577    -4.186743     0.260448
 C    -0.539434    -4.447313    -1.577576
 H    -0.343376    -4.773716    -2.614399
 H    -0.861362    -3.395676    -1.648409
 C    -1.650052    -5.286715    -0.967915
 H    -1.368933    -6.350788    -0.907190
 H    -1.884764    -4.948803     0.054334
 H    -2.576572    -5.220348    -1.558196
 C     4.030548    -0.415858    -0.916825
 H     4.645404    -1.201043    -1.389974
 H     3.541306     0.156644    -1.724376
 C     4.882164     0.492539    -0.058457
 H     5.619089     0.988374    -0.714346
 H     4.244466     1.297726     0.344938
 C     5.593655    -0.225394     1.079384
 H     6.254022    -1.005260     0.659858
 H     4.842440    -0.761198     1.683023
 C     6.398102     0.712082     1.964439
 H     7.174040     1.241851     1.388569
 H     5.752035     1.478144     2.422945
 H     6.901126     0.170108     2.779503
 C     0.826625     1.499252     2.256895
 H     1.051788     1.056426     3.240177
 H     1.599469     1.147728     1.549335
 C     0.827348     3.012715     2.342868
 H     1.837651     3.330958     2.656019
 H     0.678090     3.434673     1.334720
 C    -0.225948     3.572788     3.286519
 H    -0.052278     3.177208     4.303358
 H    -1.209046     3.192005     2.968412
 C    -0.246611     5.091712     3.315961
 H     0.723322     5.505384     3.637052
 H    -0.463472     5.501820     2.316298
 H    -1.015559     5.473667     4.004508
 C    -2.173510     3.225873    -0.630176
 H    -2.418477     4.227783    -0.244077
 H    -1.296444     3.311768    -1.293336
 C    -3.342777     2.634700    -1.391466
 H    -3.502002     3.246147    -2.297223
 H    -3.054371     1.630527    -1.748563
 C    -4.631636     2.548101    -0.587942
 H    -4.945138     3.564510    -0.290240
 H    -4.428454     2.011804     0.352824
 C    -5.757429     1.858480    -1.340322
 H    -6.003927     2.391475    -2.272849
 H    -5.476049     0.829647    -1.617915
 H    -6.676015     1.801444    -0.736686
 C    -3.000237    -0.209544     1.570444
 H    -2.439480    -0.693481     2.386954
 H    -3.316641     0.785490     1.924684
 C    -4.191956    -1.042553     1.156624
 H    -4.881531    -1.105136     2.016821
 H    -4.735506    -0.505930     0.359993
 C    -3.823765    -2.438922     0.674776
 H    -3.335313    -2.986200     1.499468
 H    -3.065002    -2.347161    -0.119413
 C    -5.016879    -3.231171     0.168247
 H    -5.781782    -3.356461     0.951995
 H    -5.499357    -2.723593    -0.682689
 H    -4.719340    -4.235238    -0.170008
