  90
scf done:    -2449.697642
 C    -0.900447    -2.440541    -2.000555
 H    -1.619479    -3.157415    -1.591306
 H    -1.284498    -1.886315    -2.862065
 C     0.504244    -2.718023    -1.914635
 H     0.824924    -3.658862    -1.453545
 H     1.168097    -2.383589    -2.718074
 H     0.244702    -0.184999    -1.807963
Ir    -0.020000    -1.142788    -0.518763
 O    -2.288328     1.084751    -1.586203
 C    -3.430746    -0.878647    -0.269425
 C    -2.215186     1.356220     1.118907
 O     1.893980     0.546369     1.841369
 C     3.505196    -0.768487     0.097164
 C     2.007542     1.636034    -0.563247
 P     1.842229     0.004687     0.260378
 P    -1.932912     0.170017    -0.258268
 C    -0.296480    -2.433021     0.874645
 O    -0.462746    -3.275922     1.638393
 C    -1.335761     2.027222    -2.096610
 H    -0.378031     1.882799    -1.570554
 C    -1.838930     3.432329    -1.833274
 H    -1.965458     3.605637    -0.754994
 H    -2.806561     3.599892    -2.331941
 H    -1.115714     4.168183    -2.214303
 C    -1.129732     1.725233    -3.564736
 H    -0.739880     0.704459    -3.688379
 H    -2.081377     1.807693    -4.113034
 H    -0.407717     2.430196    -4.003173
 C    -4.075276    -1.085563    -1.495445
 H    -3.714511    -0.550281    -2.374793
 C    -3.878579    -1.552488     0.885304
 C    -3.262009    -1.354899     2.240671
 H    -3.652453    -0.445222     2.724826
 H    -2.171924    -1.237507     2.193052
 H    -3.482146    -2.210271     2.894368
 C    -5.162940    -1.946964    -1.594103
 H    -5.654392    -2.095391    -2.558523
 C    -4.972448    -2.417299     0.758675
 H    -5.325677    -2.946199     1.648327
 C    -5.614076    -2.617713    -0.460036
 H    -6.464144    -3.301366    -0.522752
 C    -1.177491     1.499521     2.042925
 H    -0.274734     0.897115     1.921906
 C    -3.397391     2.121037     1.260102
 C    -4.574812     1.998045     0.337765
 H    -5.145651     1.080570     0.553408
 H    -4.261760     1.933516    -0.711611
 H    -5.252764     2.854179     0.460538
 C    -1.273545     2.393415     3.106407
 H    -0.445908     2.493582     3.812568
 C    -3.468392     3.017113     2.333449
 H    -4.373000     3.620315     2.451170
 C    -2.426709     3.158571     3.248499
 H    -2.520992     3.870621     4.072287
 C     2.502758    -0.139932     2.932178
 H     3.567450    -0.308177     2.686008
 C     1.854651    -1.482128     3.203198
 H     1.982054    -2.167291     2.354198
 H     0.778313    -1.366992     3.398944
 H     2.319036    -1.952584     4.082601
 C     2.416972     0.800910     4.116575
 H     2.869334     1.773067     3.872997
 H     1.366175     0.967131     4.399614
 H     2.944981     0.377214     4.983385
 C     3.521078    -2.124004    -0.247029
 H     2.560962    -2.616179    -0.421797
 C     4.723308    -0.086297     0.325883
 C     4.806683     1.367799     0.693351
 H     4.008274     1.669306     1.382776
 H     4.702102     2.006368    -0.198281
 H     5.778875     1.591896     1.154433
 C     4.716287    -2.823618    -0.384392
 H     4.704479    -3.881342    -0.656521
 C     5.913156    -0.810439     0.181838
 H     6.862463    -0.296275     0.356332
 C     5.919518    -2.157903    -0.171680
 H     6.870132    -2.687003    -0.275323
 C     1.595584     2.774618     0.139241
 H     1.280626     2.672430     1.177851
 C     2.421675     1.748604    -1.907880
 C     2.894627     0.574500    -2.713554
 H     2.243566    -0.299699    -2.565603
 H     3.911951     0.271386    -2.419329
 H     2.909806     0.819656    -3.784530
 C     1.581612     4.026199    -0.469441
 H     1.247313     4.900414     0.093836
 C     2.401208     3.019140    -2.496107
 H     2.720601     3.116678    -3.537467
 C     1.986631     4.149277    -1.795620
 H     1.978903     5.124285    -2.288962
