  82
scf done:    -2593.354033
 C     0.813561    -3.547374    -1.437328
 H     1.573039    -3.464719    -2.222947
 H     1.100596    -4.224378    -0.627877
 C    -0.570888    -3.436743    -1.806414
 H    -0.831463    -3.256750    -2.853864
 H    -1.317919    -4.024055    -1.265733
 H    -0.389814    -2.549128     0.582909
Ir     0.023001    -1.672304    -0.725442
 O     0.813188    -0.475952     2.248224
 O     2.913584    -0.943376     1.125601
 O     1.523757     1.012617     0.233046
 O    -1.710191     0.750050     0.745305
 O    -2.211312     0.397510    -1.776326
 O    -3.278920    -1.122695    -0.032206
 P    -1.834792    -0.404196    -0.385143
 P     1.352200    -0.554582     0.721254
 C     0.576987    -0.703336    -2.313739
 O     0.924124    -0.117591    -3.232712
 C     1.562952    -0.722361     3.423735
 H     2.001849    -1.730175     3.410033
 H     2.367999     0.015410     3.553785
 H     0.856063    -0.645262     4.260888
 C     3.990747    -0.901497     0.274370
 C     3.947620    -1.494792    -0.985526
 H     3.037941    -2.009889    -1.296879
 C     5.143036    -0.253463     0.746928
 C     5.174031     0.343638     2.119858
 H     4.419799     1.138444     2.228283
 H     4.955321    -0.416425     2.885878
 H     6.159681     0.777478     2.334877
 C     5.060091    -1.413568    -1.821047
 H     5.022901    -1.869987    -2.812700
 C     6.244304    -0.195854    -0.111573
 H     7.150373     0.308537     0.234983
 C     6.209417    -0.757904    -1.387293
 H     7.084334    -0.689851    -2.037475
 C     2.224960     2.025555     0.834668
 C     1.903527     2.446847     2.123915
 H     1.080225     1.957233     2.644672
 C     3.217122     2.663031     0.073074
 C     3.485530     2.239219    -1.337446
 H     4.166645     2.943482    -1.833468
 H     3.942056     1.238498    -1.377308
 H     2.552176     2.181851    -1.917017
 C     2.625521     3.485925     2.707909
 H     2.381743     3.812740     3.721444
 C     3.919595     3.705568     0.684858
 H     4.702179     4.212718     0.114088
 C     3.644101     4.109523     1.990852
 H     4.215264     4.924338     2.441147
 C    -2.644943     1.697146     1.245148
 H    -3.586489     1.703338     0.682239
 H    -2.858036     1.457757     2.296756
 H    -2.182572     2.692121     1.175688
 C    -2.959968     1.542333    -1.892301
 C    -4.330994     1.444348    -2.111431
 H    -4.773445     0.450583    -2.195666
 C    -2.302359     2.781623    -1.837796
 C    -0.813828     2.848175    -1.677754
 H    -0.469282     3.890107    -1.636132
 H    -0.469398     2.330514    -0.770054
 H    -0.311973     2.351450    -2.522959
 C    -5.094816     2.603331    -2.230943
 H    -6.171878     2.531345    -2.398623
 C    -3.094535     3.927197    -1.960158
 H    -2.609280     4.906059    -1.915699
 C    -4.475112     3.848077    -2.142582
 H    -5.064865     4.763034    -2.232501
 C    -4.118184    -0.956886     1.044599
 C    -5.397242    -0.460492     0.794475
 H    -5.666209    -0.204306    -0.230207
 C    -3.719750    -1.322589     2.340572
 C    -2.367340    -1.901372     2.613757
 H    -2.308714    -2.275325     3.645081
 H    -2.147231    -2.732312     1.927510
 H    -1.560624    -1.164981     2.470425
 C    -6.300544    -0.289274     1.838343
 H    -7.299072     0.103059     1.633000
 C    -4.648597    -1.133272     3.371558
 H    -4.356476    -1.411659     4.387839
 C    -5.921159    -0.618887     3.137658
 H    -6.618574    -0.487510     3.967865
