  78
scf done:    -2141.277179
 C    -0.902649    -2.471690    -2.004173
 H    -1.484351    -3.268929    -1.532057
 H    -1.426295    -1.982631    -2.830000
 C     0.529018    -2.567698    -2.038575
 H     1.013448    -3.445793    -1.598525
 H     1.067670    -2.169372    -2.903787
 H    -0.036549    -0.051966    -1.887980
Ir    -0.073488    -1.062330    -0.597980
 O    -2.419343     1.342403    -1.012965
 O    -3.295811    -0.783782    -0.109637
 O    -2.092974     0.905204     1.382617
 O     2.612170    -0.353332     1.390140
 O     2.929049     0.495576    -0.895937
 O     1.306419     1.635304     0.703918
 P     1.699194     0.158191     0.133583
 P    -1.954702     0.116645    -0.050772
 C    -0.095220    -2.319222     0.856996
 O    -0.099372    -3.078798     1.716644
 C    -1.544578     2.460452    -1.219357
 H    -0.542924     2.197252    -0.836338
 C    -2.073172     3.645579    -0.437262
 H    -2.126595     3.396619     0.631279
 H    -3.082841     3.915727    -0.783840
 H    -1.415787     4.518733    -0.567525
 C    -1.463065     2.701931    -2.710881
 H    -1.071964     1.809261    -3.219647
 H    -2.461699     2.923716    -3.118167
 H    -0.800904     3.552723    -2.931832
 C    -4.608980    -0.233521     0.101255
 H    -4.499291     0.747786     0.592765
 C    -5.347268    -1.179226     1.023878
 H    -4.823878    -1.273273     1.985480
 H    -5.415259    -2.179240     0.568927
 H    -6.367148    -0.813350     1.215526
 C    -5.284144    -0.056628    -1.243234
 H    -4.698362     0.627178    -1.871494
 H    -5.365800    -1.026333    -1.757919
 H    -6.296273     0.356858    -1.115572
 C    -1.385805     0.515870     2.559579
 H    -0.381654     0.168815     2.257531
 C    -2.118754    -0.606171     3.268856
 H    -2.234304    -1.481711     2.614503
 H    -3.121314    -0.272537     3.579205
 H    -1.564736    -0.923623     4.164825
 C    -1.242474     1.761175     3.406185
 H    -0.732488     2.545472     2.830710
 H    -2.231639     2.136923     3.710367
 H    -0.653872     1.550260     4.311208
 C     3.753145    -1.210162     1.266487
 H     4.378578    -0.815607     0.448234
 C     3.342136    -2.632231     0.937633
 H     2.783360    -2.672189    -0.009032
 H     2.700501    -3.044839     1.730632
 H     4.232649    -3.271263     0.841426
 C     4.508821    -1.100121     2.573355
 H     4.795366    -0.056895     2.769815
 H     3.882637    -1.451311     3.407815
 H     5.422144    -1.712481     2.541978
 C     2.813377     0.478987    -2.320632
 H     2.017223    -0.237089    -2.583935
 C     4.137449    -0.008036    -2.867481
 H     4.367005    -1.011253    -2.479740
 H     4.952572     0.672188    -2.575317
 H     4.105377    -0.060438    -3.965800
 C     2.420856     1.856366    -2.814859
 H     1.446885     2.150122    -2.398247
 H     3.171562     2.605020    -2.516811
 H     2.336277     1.865562    -3.911840
 C     2.298448     2.594680     1.109605
 H     3.261512     2.303333     0.658578
 C     2.426729     2.591522     2.619609
 H     2.674021     1.583070     2.975632
 H     1.484907     2.908551     3.090681
 H     3.220531     3.285197     2.936319
 C     1.871320     3.935595     0.550686
 H     1.807868     3.898784    -0.546118
 H     0.881971     4.215345     0.944543
 H     2.590843     4.719197     0.831574
