  90
scf done:    -2298.382909
 C     1.451321    -3.195546     0.181323
 H     2.395536    -3.283856    -0.365923
 H     1.545162    -3.438389     1.244079
 C     0.221947    -3.502300    -0.496496
 H     0.264634    -3.814401    -1.545170
 H    -0.589674    -3.973002     0.065847
 H    -0.387362    -1.722674     1.235074
Ir     0.365108    -1.365458    -0.177801
 O     2.178775    -0.227741     2.449966
 O     3.033296     0.674979     0.356631
 O     0.915834     1.614435     1.201974
 O    -1.329283     1.049634    -1.637207
 O    -2.659307    -1.023525    -1.702094
 O    -2.616302     0.188949     0.412595
 P    -1.562292    -0.283249    -0.745687
 P     1.608797     0.167155     0.965200
 C     1.122486    -1.030240    -1.916707
 O     1.518455    -0.831209    -2.973250
 C     1.442726    -0.967282     3.424840
 H     0.675788    -1.561816     2.897035
 C     0.765030    -0.000549     4.377311
 H     0.088679     0.673683     3.831893
 H     1.514262     0.614419     4.899712
 H     0.175433    -0.544767     5.130241
 C     2.415704    -1.902887     4.109171
 H     2.872955    -2.583270     3.376180
 H     3.218853    -1.332128     4.600556
 H     1.901458    -2.507707     4.870712
 C     4.209343    -0.127291     0.363803
 H     5.026644     0.538979     0.685922
 H     4.116950    -0.920939     1.121954
 C     4.510238    -0.706645    -1.002173
 H     5.448863    -1.283049    -0.918592
 H     3.727830    -1.437408    -1.265788
 C     4.637102     0.339870    -2.099570
 H     5.433070     1.055268    -1.824464
 H     3.704128     0.925188    -2.137732
 C     4.925991    -0.259488    -3.465574
 H     5.860307    -0.844329    -3.460331
 H     4.111936    -0.930879    -3.779462
 H     5.026042     0.520576    -4.235393
 C     1.608840     2.722783     1.775915
 H     0.900855     3.187269     2.482145
 H     2.477280     2.365766     2.351280
 C     2.023851     3.707335     0.703319
 H     2.519741     4.562276     1.196876
 H     2.781678     3.224269     0.065078
 C     0.860938     4.189662    -0.151431
 H     0.108106     4.675675     0.495888
 H     0.363211     3.309214    -0.587680
 C     1.283610     5.143394    -1.255785
 H     1.764819     6.048012    -0.849558
 H     2.005525     4.664821    -1.937034
 H     0.423043     5.469045    -1.860098
 C    -2.394114     1.729604    -2.327483
 H    -3.353034     1.425973    -1.874737
 C    -2.369682     1.317435    -3.785273
 H    -2.527797     0.235030    -3.875814
 H    -1.396539     1.571342    -4.233028
 H    -3.159373     1.838612    -4.347520
 C    -2.190192     3.215480    -2.129014
 H    -2.189958     3.471691    -1.061155
 H    -1.228010     3.531220    -2.559657
 H    -2.994574     3.780893    -2.622839
 C    -2.952054    -2.410517    -1.583509
 H    -3.596167    -2.639120    -2.446689
 H    -2.017269    -2.983826    -1.687925
 C    -3.645980    -2.770543    -0.285097
 H    -3.811804    -3.862752    -0.288952
 H    -2.954491    -2.572757     0.552848
 C    -4.959819    -2.038257    -0.055467
 H    -5.668111    -2.299934    -0.861826
 H    -4.773436    -0.956743    -0.142513
 C    -5.579032    -2.343631     1.298128
 H    -5.781518    -3.420420     1.419534
 H    -4.903894    -2.043060     2.116001
 H    -6.530263    -1.808410     1.440322
 C    -2.244008     0.616181     1.712598
 H    -3.005858     0.204606     2.395486
 H    -1.274394     0.170520     1.982962
 C    -2.188347     2.124765     1.816150
 H    -1.840559     2.379505     2.833830
 H    -1.407657     2.488224     1.129064
 C    -3.513748     2.816305     1.534690
 H    -4.276664     2.447506     2.243215
 H    -3.866361     2.513790     0.534587
 C    -3.422291     4.331114     1.618895
 H    -3.101705     4.658059     2.621414
 H    -2.688807     4.727639     0.897965
 H    -4.389260     4.811512     1.405867
