  50
scf done:    -1526.175457
 C    -0.383345    -2.786022    -0.919695
 H    -0.803622    -3.465639    -0.171736
 H    -0.981292    -2.713445    -1.832044
 C     1.040928    -2.625258    -0.988865
 H     1.669353    -3.190615    -0.292784
 H     1.513663    -2.451317    -1.959894
 H     0.015399    -0.377019    -1.730999
Ir     0.137119    -0.836394    -0.156304
 O    -2.876955    -0.546200    -1.296091
 C    -3.013506     0.103195     1.324031
 C    -1.920698     1.973842    -0.645684
 O     1.359542     2.312896     0.552947
 C     3.293474     0.436864     0.810233
 C     2.292607     1.425965    -1.727650
 P     1.735903     0.812359    -0.097864
 P    -1.922456     0.189670    -0.158202
 C     0.330713    -1.403566     1.658118
 O     0.478303    -1.730552     2.753437
 C    -4.103896    -0.045548    -1.751445
 H    -4.815938     0.160349    -0.932206
 H    -3.980196     0.875565    -2.347715
 H    -4.548962    -0.812619    -2.401573
 H    -3.215426    -0.973341     1.446416
 C    -2.419938     0.683852     2.597057
 H    -2.181383     1.753323     2.492125
 H    -1.496843     0.160448     2.883186
 H    -3.977443     0.584689     1.091019
 H    -3.127490     0.586108     3.434355
 H    -1.759678     1.946783    -1.737642
 C    -3.094985     2.867861    -0.274512
 H    -3.223118     2.940862     0.815768
 H    -4.048964     2.519620    -0.694710
 H    -0.979902     2.372710    -0.234587
 H    -2.928078     3.890299    -0.647991
 C     0.931225     2.380025     1.886707
 H     0.213564     1.574493     2.121834
 H     1.777365     2.310915     2.593423
 H     0.435585     3.350531     2.037790
 H     2.988050     0.179287     1.838061
 C     4.082146    -0.708876     0.196047
 H     4.458539    -0.452377    -0.806456
 H     3.452154    -1.604695     0.095037
 H     3.890179     1.361951     0.871990
 H     4.951277    -0.966652     0.819716
 H     1.369591     1.773796    -2.218337
 C     3.360129     2.506312    -1.714935
 H     4.314381     2.135911    -1.310131
 H     3.041272     3.361100    -1.101551
 H     2.604345     0.529549    -2.287873
 H     3.557520     2.870304    -2.734866
