  70
scf done:    -2832.985430
 C    -0.342088    -3.313909     0.913335
 H    -0.991988    -3.446872     1.782796
 H    -0.730825    -3.771507     0.000025
 C     1.068121    -3.199250     1.101739
 H     1.481657    -3.244925     2.113518
 H     1.745444    -3.563564     0.324552
 H     0.481821    -1.729231    -0.955024
Ir     0.260705    -1.248989     0.594080
 O    -1.097065     1.080680    -1.361681
 O    -2.505238    -0.913158    -1.324364
 O    -2.482352     0.588064     0.750435
 O     3.060238     0.142620     1.610959
 O     3.212451    -0.883982    -0.763255
 O     2.273761     1.369629    -0.470340
 P     2.188183    -0.126580     0.265701
 P    -1.440577    -0.112250    -0.333842
 C    -0.057149    -0.709808     2.427397
 O    -0.249343    -0.354266     3.497217
 C    -1.838514     1.481608    -2.502093
 H    -1.892815     0.664755    -3.235362
 H    -2.856878     1.799232    -2.236442
 H    -1.297102     2.333281    -2.934370
 C    -2.992116    -2.160022    -1.040552
 C    -2.962979    -3.115336    -2.055527
 H    -2.537222    -2.843273    -3.022586
 C    -3.516572    -2.478919     0.213919
 H    -3.522587    -1.729726     1.007083
 C    -3.462312    -4.393390    -1.823496
 H    -3.450520    -5.159253    -2.600907
 C    -4.009509    -3.759515     0.451067
 H    -4.418033    -4.037436     1.424148
 C    -3.976794    -4.701580    -0.569217
 F    -4.450229    -5.926424    -0.342394
 C    -3.428669     1.510874     0.369234
 C    -4.678270     1.102865    -0.096902
 H    -4.912826     0.039632    -0.165619
 C    -3.115163     2.865220     0.461401
 H    -2.128052     3.148996     0.822217
 C    -5.613640     2.061022    -0.482214
 H    -6.600041     1.774721    -0.851303
 C    -4.043730     3.825980     0.075301
 H    -3.809889     4.890398     0.134873
 C    -5.284086     3.409239    -0.395474
 F    -6.179656     4.321636    -0.770241
 C     4.133140     1.058599     1.773957
 H     5.096052     0.541756     1.654947
 H     4.076243     1.881777     1.047069
 H     4.061761     1.466938     2.791694
 C     4.549978    -0.602979    -0.892203
 C     5.471049    -1.456176    -0.285164
 H     5.102996    -2.308363     0.288763
 C     4.981736     0.490750    -1.642379
 H     4.240796     1.138804    -2.110493
 C     6.834729    -1.206818    -0.411138
 H     7.578745    -1.856216     0.053536
 C     6.345083     0.743762    -1.768684
 H     6.714766     1.592745    -2.346487
 C     7.254638    -0.105819    -1.149454
 F     8.558465     0.137815    -1.269499
 C     1.487500     2.431972    -0.131050
 C     1.040707     2.656334     1.172602
 H     1.305684     1.965498     1.974280
 C     1.152196     3.325735    -1.149787
 H     1.504436     3.120976    -2.161943
 C     0.253762     3.773105     1.452124
 H    -0.111075     3.965154     2.462775
 C     0.367968     4.438972    -0.874222
 H     0.084837     5.145039    -1.656880
 C    -0.077251     4.646649     0.426536
 F    -0.867910     5.691815     0.687352
