  54
scf done:    -1826.970477
 C     1.247763    -2.834511    -0.183546
 H     1.714546    -3.029707    -1.154288
 H     1.937193    -2.934873     0.658202
 C    -0.136461    -3.167092     0.007371
 H    -0.690740    -3.616267    -0.823314
 H    -0.470854    -3.510415     0.990490
 H     0.359401    -1.143684     1.510625
Ir     0.085920    -1.019106    -0.096824
 O     3.068243     0.645532    -0.326519
 O     1.105391     1.929766    -1.093051
 O     1.627321     1.609339     1.397399
 O    -2.215246     1.486789     0.412783
 O    -3.302774    -0.627367    -0.177052
 O    -2.207107    -0.302828     2.114391
 P    -1.907535    -0.112006     0.526315
 P     1.477974     0.775057    -0.002264
 C    -0.142825    -0.967314    -2.012727
 O    -0.258422    -0.949405    -3.152784
 C     4.103019     0.443124     0.641651
 H     3.979992     1.207945     1.426460
 C     5.409834     0.671727    -0.086571
 H     5.432918     1.675584    -0.534740
 H     5.534544    -0.068737    -0.891256
 H     6.257971     0.579948     0.607977
 C     4.006434    -0.932111     1.271450
 H     3.042205    -1.063353     1.783386
 H     4.095119    -1.715332     0.503807
 H     4.811426    -1.068489     2.009177
 C     1.907453     3.085743    -1.241524
 H     2.105133     3.560380    -0.267417
 H     2.866014     2.837700    -1.721407
 H     1.349106     3.785721    -1.877897
 C     0.547350     1.784252     2.293448
 H    -0.266077     2.364655     1.831665
 H     0.139347     0.815418     2.620841
 H     0.940328     2.329213     3.162478
 C    -2.842220     2.162967    -0.683199
 H    -3.898090     1.841540    -0.706459
 C    -2.192134     1.832207    -2.012869
 H    -2.348974     0.778260    -2.280150
 H    -1.110013     2.026116    -1.973466
 H    -2.640097     2.445420    -2.809083
 C    -2.766456     3.637718    -0.349986
 H    -3.207664     3.835452     0.637619
 H    -1.716152     3.967592    -0.334157
 H    -3.308344     4.231660    -1.100560
 C    -3.447195    -1.965115    -0.602555
 H    -2.693089    -2.228435    -1.360873
 H    -3.354910    -2.671767     0.237942
 H    -4.450199    -2.056827    -1.040953
 C    -3.375306     0.233992     2.704699
 H    -3.319779     1.332044     2.757817
 H    -4.275573    -0.049963     2.137260
 H    -3.441924    -0.179521     3.719740
