  78
scf done:    -2765.000908
 C    -0.773071     0.285038    -3.433935
 H    -1.288157    -0.566361    -3.891716
 H    -1.337945     1.219813    -3.499663
 C     0.662510     0.318182    -3.476633
 H     1.186736    -0.502491    -3.978296
 H     1.175694     1.278551    -3.583220
 H    -0.061048     1.559033    -1.375846
Ir    -0.006235    -0.077213    -1.460248
 C    -1.589407     1.187800     1.462650
 C    -3.298913     0.892360    -0.808770
 C    -2.539902    -1.397752     0.705703
 C     1.671425    -1.024807     1.496977
 C     3.426046    -0.673414    -0.701693
 C     2.392444     1.634566     0.596444
 P     1.850242    -0.007595    -0.020921
 P    -1.830833     0.129633    -0.020292
 C    -0.012872    -1.983629    -1.644791
 O    -0.027892    -3.126754    -1.759861
 C    -2.088798     0.836878     2.722360
 C    -0.834993     2.360681     1.331545
 C    -1.043664     2.787776     3.698578
 C    -0.562624     3.155697     2.441496
 C    -1.813633     1.632970     3.833792
 H    -2.676186    -0.075645     2.841347
 H    -2.199128     1.343093     4.814430
 H    -0.818761     3.402541     4.573408
 H     0.044095     4.056591     2.323357
 H    -0.436663     2.630880     0.352130
 C    -3.764055     0.335208    -2.008193
 H    -3.233472    -0.513930    -2.444552
 C    -3.973349     1.989907    -0.265069
 H    -3.627411     2.435426     0.669832
 C    -4.884338     0.851863    -2.647723
 H    -5.259562     0.426675    -3.580267
 C    -5.089235     2.527768    -0.904822
 H    -5.622366     3.388458    -0.497030
 C    -5.530994     1.949164    -2.086849
 F    -6.597369     2.455926    -2.700688
 C    -3.919299    -1.594379     0.849675
 H    -4.619243    -0.835284     0.494234
 C    -1.663044    -2.386397     1.170015
 H    -0.585283    -2.251061     1.065755
 C    -4.414998    -2.752786     1.442953
 H    -5.487060    -2.923921     1.555897
 C    -2.144630    -3.542131     1.774382
 H    -1.466666    -4.314096     2.141765
 C    -3.518422    -3.711239     1.900249
 F    -3.987473    -4.818350     2.470140
 C     2.043656    -2.376032     1.463983
 C     1.007780    -0.532673     2.629451
 C     1.100509    -2.716055     3.664332
 C     0.729515    -1.372789     3.704942
 C     1.757213    -3.214842     2.539707
 H     2.554620    -2.778523     0.586071
 H     2.052374    -4.266042     2.496927
 H     0.876184    -3.374184     4.506986
 H     0.207390    -0.970298     4.576056
 H     0.693440     0.510933     2.671622
 C     3.444413    -1.279490    -1.959646
 H     2.519431    -1.317870    -2.536961
 C     4.617410    -0.604909     0.034733
 H     4.627991    -0.132206     1.019174
 C     4.620934    -1.816144    -2.479731
 H     4.648259    -2.292300    -3.461361
 C     5.799091    -1.132319    -0.470836
 H     6.734842    -1.085270     0.089002
 C     5.783460    -1.734120    -1.726334
 F     6.912973    -2.240109    -2.212893
 C     2.968199     1.833258     1.857504
 H     3.082788     0.996234     2.548931
 C     2.267752     2.731325    -0.265703
 H     1.811526     2.583497    -1.247562
 C     3.386540     3.098437     2.261807
 H     3.825022     3.267653     3.246848
 C     2.689593     3.999078     0.120410
 H     2.594035     4.860794    -0.542615
 C     3.238512     4.167155     1.386837
 F     3.629211     5.379525     1.770408
