  98
scf done:    -2602.929118
 C    -0.657002    -3.493708     0.531894
 H    -0.712449    -3.753116     1.594472
 H    -1.580908    -3.706005    -0.013591
 C     0.604794    -3.623447    -0.142592
 H     1.478232    -3.967762     0.420029
 H     0.610019    -3.946670    -1.187455
 H    -0.608104    -1.702354    -1.333370
Ir     0.140434    -1.527713     0.113301
 C    -2.785749     0.411458    -0.661169
 O    -2.593743    -0.397117     1.792827
 O    -0.946000     1.428462     1.052524
 C     2.784529     0.830562    -0.087682
 O     2.714497    -0.865258    -2.052159
 O     0.841862     0.871248    -1.990328
 P     1.622245    -0.203475    -1.019089
 P    -1.541792    -0.040476     0.579170
 C     1.060320    -1.377502     1.799752
 O     1.609020    -1.270221     2.801392
 C    -4.149377     0.542867    -0.354568
 H    -4.492627     0.326566     0.658394
 C    -2.360451     0.669408    -1.966487
 H    -1.302477     0.559908    -2.217675
 C    -5.055620     0.937745    -1.326197
 H    -6.119267     1.042025    -1.103829
 C    -3.262992     1.073286    -2.947760
 H    -2.898083     1.267597    -3.956701
 C    -4.620080     1.212869    -2.630686
 O    -5.568044     1.595429    -3.505867
 C    -5.193279     1.892961    -4.821953
 H    -4.752524     1.018122    -5.331478
 H    -6.108577     2.187229    -5.350811
 H    -4.472157     2.728366    -4.864155
 C    -2.222242    -1.137358     2.942769
 H    -1.436697    -1.861879     2.670682
 H    -1.803687    -0.450774     3.699921
 C    -3.442103    -1.852024     3.480119
 H    -3.158313    -2.342256     4.427941
 H    -4.211257    -1.102492     3.738474
 C    -4.020314    -2.875474     2.512794
 H    -3.247476    -3.628722     2.281241
 H    -4.240830    -2.373229     1.556661
 C    -5.269769    -3.559653     3.041432
 H    -5.068526    -4.094691     3.983862
 H    -6.070276    -2.829620     3.244105
 H    -5.664553    -4.292731     2.321860
 C    -1.745749     2.526265     1.467649
 H    -1.203887     3.428268     1.137861
 H    -2.715990     2.515790     0.942324
 C    -1.939490     2.550038     2.971582
 H    -2.491488     3.472157     3.226275
 H    -2.591705     1.710428     3.262865
 C    -0.634921     2.489863     3.754327
 H     0.005405     3.340889     3.459240
 H    -0.080835     1.584301     3.456466
 C    -0.840065     2.494546     5.259871
 H    -1.364620     3.404365     5.593963
 H    -1.446554     1.631573     5.580198
 H     0.117606     2.443733     5.799372
 C     2.262480     1.665126     0.915269
 H     1.184288     1.674094     1.101068
 C     4.162561     0.817611    -0.307335
 H     4.572181     0.170601    -1.084804
 C     3.101490     2.469966     1.666679
 H     2.710667     3.121738     2.450468
 C     5.015805     1.618610     0.451303
 H     6.088696     1.582886     0.260816
 C     4.487037     2.452539     1.443651
 O     5.224272     3.261498     2.226874
 C     6.614848     3.279214     2.064288
 H     6.906068     3.611252     1.052073
 H     7.008399     3.993622     2.798356
 H     7.063048     2.288239     2.255015
 C     2.325841    -1.871037    -2.975320
 H     1.464040    -2.427754    -2.569307
 H     2.002404    -1.387191    -3.913642
 C     3.499568    -2.791923    -3.224985
 H     3.216957    -3.496221    -4.027164
 H     4.339698    -2.193915    -3.621109
 C     3.949214    -3.558261    -1.989061
 H     3.113469    -4.179783    -1.625783
 H     4.154742    -2.836457    -1.181646
 C     5.172022    -4.425821    -2.236045
 H     4.982389    -5.175565    -3.021509
 H     6.033155    -3.820452    -2.563137
 H     5.474086    -4.967839    -1.327111
 C     1.499041     1.898337    -2.715047
 H     2.329881     2.309774    -2.114692
 H     1.931077     1.477927    -3.639379
 C     0.481302     2.975580    -3.023689
 H     0.961579     3.741749    -3.657063
 H    -0.326757     2.533117    -3.632889
 C    -0.109505     3.608573    -1.771126
 H     0.688739     4.146346    -1.228985
 H    -0.437899     2.801082    -1.098763
 C    -1.271685     4.543035    -2.059743
 H    -0.978913     5.363820    -2.734884
 H    -2.103359     3.998138    -2.535489
 H    -1.663844     4.997064    -1.136709
