  98
scf done:    -2230.378453
 C     0.492158     3.073772     1.125271
 H    -0.115992     3.868972     0.679756
 H     0.344555     2.978466     2.205793
 C     1.799576     2.817236     0.572330
 H     2.138427     3.426165    -0.273060
 H     2.612764     2.526829     1.244459
 H     0.951338     0.612061     1.536531
Ir     0.468375     1.198157     0.081162
 C    -1.271634    -1.461730     1.564927
 C    -2.645481     1.044432     1.708608
 C    -2.589183    -0.411435    -0.795069
 C     0.622868    -1.653641    -1.991577
 C     3.092270    -0.286484    -1.891449
 C     2.203781    -1.889356     0.384555
 P     1.619573    -0.633010    -0.826445
 P    -1.513860     0.086726     0.611933
 C    -0.110233     1.979531    -1.560379
 O    -0.485361     2.463302    -2.537344
 C    -1.537274    -2.730085     1.035771
 C    -0.705816    -1.375422     2.845760
 C    -0.683179    -3.784068     3.038130
 C    -0.422692    -2.523581     3.578781
 C    -1.238682    -3.882013     1.765052
 H    -1.962231    -2.832944     0.036760
 H    -1.445553    -4.863388     1.330694
 H    -0.449997    -4.686206     3.608465
 H     0.017142    -2.434795     4.575183
 H    -0.455930    -0.395933     3.260701
 H    -3.485884     0.404125     2.024817
 H    -2.058538     1.280882     2.610961
 C    -3.130466     2.331060     1.057141
 H    -2.258185     2.868349     0.648735
 H    -3.776323     2.094653     0.192890
 C    -3.888517     3.239694     2.014216
 H    -3.237768     3.480754     2.874405
 H    -4.754368     2.696698     2.435812
 C    -4.366749     4.531996     1.367294
 H    -3.496545     5.064864     0.945140
 H    -5.012471     4.287515     0.505075
 C    -5.114152     5.446882     2.323757
 H    -5.445567     6.371533     1.827333
 H    -4.479165     5.736798     3.176431
 H    -6.008451     4.951160     2.734980
 H    -2.631999     0.472659    -1.452491
 H    -2.011079    -1.155357    -1.367246
 C    -3.990262    -0.920825    -0.486593
 H    -3.955492    -1.684977     0.308530
 H    -4.605411    -0.098859    -0.082635
 C    -4.674125    -1.505306    -1.715565
 H    -4.056322    -2.331410    -2.113691
 H    -4.698076    -0.744097    -2.516559
 C    -6.085670    -2.008245    -1.449673
 H    -6.054268    -2.761763    -0.642625
 H    -6.697991    -1.177366    -1.056479
 C    -6.755932    -2.601256    -2.678414
 H    -7.773432    -2.956921    -2.456247
 H    -6.182970    -3.456612    -3.071632
 H    -6.832683    -1.858560    -3.488846
 C     0.281914    -2.989580    -1.750159
 C     0.106950    -1.031650    -3.139539
 C    -1.081249    -3.044330    -3.748920
 C    -0.730555    -1.718801    -4.011812
 C    -0.569645    -3.675724    -2.618285
 H     0.662143    -3.506230    -0.868632
 H    -0.831674    -4.715370    -2.405492
 H    -1.749306    -3.581887    -4.425923
 H    -1.123813    -1.211454    -4.895909
 H     0.339825     0.016198    -3.343600
 H     3.593503    -1.245504    -2.111124
 H     2.679815     0.076000    -2.848084
 C     4.058900     0.747500    -1.336145
 H     3.481751     1.635581    -1.033272
 H     4.530166     0.372236    -0.412878
 C     5.142451     1.141476    -2.329505
 H     4.668272     1.527176    -3.250806
 H     5.709938     0.244571    -2.639617
 C     6.106417     2.186145    -1.784225
 H     5.531583     3.074652    -1.468797
 H     6.577883     1.796689    -0.864424
 C     7.181992     2.595213    -2.777317
 H     7.861953     3.349791    -2.353502
 H     6.739482     3.022926    -3.691479
 H     7.793575     1.730899    -3.083269
 H     1.288715    -2.276277     0.863215
 H     2.665178    -2.723809    -0.170970
 C     3.145179    -1.375086     1.463717
 H     4.120678    -1.108018     1.024121
 H     2.729570    -0.443858     1.883703
 C     3.354714    -2.390937     2.577785
 H     3.774056    -3.323961     2.157926
 H     2.370715    -2.667264     2.996792
 C     4.256637    -1.887953     3.695538
 H     5.241186    -1.615492     3.275528
 H     3.836816    -0.949947     4.099878
 C     4.439701    -2.894260     4.820083
 H     5.091855    -2.503768     5.616037
 H     4.889631    -3.829917     4.450386
 H     3.473219    -3.156499     5.280652
