  70
scf done:    -1987.890659
 C    -4.013721     0.714012     0.215967
 H    -4.566087     0.299838     1.066646
 H    -4.082765     1.804744     0.150740
 C    -3.950317    -0.056445    -1.001040
 H    -4.456808    -1.027295    -1.029362
 H    -3.967557     0.464678    -1.963214
 H    -1.811282     1.365636    -0.873383
Ir    -2.019209    -0.041522    -0.045727
 C     0.868468     1.817388     0.609735
 C    -1.387004     2.570336     2.204846
 C     0.081941     0.167829     2.854574
 C     1.138580    -1.569712    -0.771123
 C    -0.914003    -2.455327    -2.448510
 C     0.222750     0.221557    -2.803050
 P    -0.419810    -0.932091    -1.515200
 P    -0.605873     1.094207     1.415554
 C    -2.334331    -1.611220     0.985634
 O    -2.518218    -2.539522     1.645645
 C     0.716125     2.927350    -0.239968
 H    -0.268408     3.383148    -0.368800
 C     2.135466     1.240385     0.705141
 H     2.296371     0.355021     1.323522
 C     1.788111     3.442957    -0.949427
 H     1.670728     4.303095    -1.611256
 C     3.225214     1.747038    -0.005163
 H     4.192000     1.253533     0.093306
 C     3.057874     2.855376    -0.838852
 O     4.041761     3.415549    -1.570189
 C     5.322588     2.854561    -1.513465
 H     5.327321     1.805225    -1.859050
 H     5.958286     3.450513    -2.180492
 H     5.743189     2.890977    -0.492922
 H    -1.783859     3.172176     1.372605
 C    -2.510279     2.198750     3.159336
 H    -2.135491     1.667020     4.047617
 H    -3.240967     1.546197     2.659526
 H    -0.607660     3.172147     2.700411
 H    -3.037410     3.097908     3.512764
 H     0.691100    -0.643093     2.425258
 C     0.861898     0.964436     3.888266
 H     0.224588     1.699587     4.401574
 H     1.699601     1.514032     3.433647
 H    -0.787890    -0.335047     3.308029
 H     1.278250     0.298179     4.660067
 C     2.415617    -1.351385    -1.309266
 H     2.539434    -0.764854    -2.220461
 C     1.051864    -2.325780     0.401278
 H     0.073455    -2.516486     0.848232
 C     3.553446    -1.846805    -0.688666
 H     4.548067    -1.666948    -1.101804
 C     2.183562    -2.836876     1.035406
 H     2.063492    -3.419883     1.948890
 C     3.451327    -2.589541     0.494672
 O     4.607802    -3.020155     1.034371
 C     4.562882    -3.768279     2.217447
 H     3.999109    -4.708809     2.088069
 H     5.601238    -4.010426     2.476674
 H     4.112010    -3.196522     3.047947
 H    -0.979158    -3.235641    -1.671928
 C    -2.223568    -2.369281    -3.212438
 H    -2.158841    -1.680705    -4.067090
 H    -3.029747    -2.011179    -2.556946
 H    -0.071261    -2.736379    -3.103426
 H    -2.506924    -3.357491    -3.606161
 H     0.875533    -0.351770    -3.482428
 C    -0.829798     0.983315    -3.591611
 H    -1.514900     1.510013    -2.911838
 H    -1.434320     0.321025    -4.227278
 H     0.862340     0.931891    -2.252899
 H    -0.349374     1.726587    -4.246094
