  90
scf done:    -4735.806424
 C    -0.743193     0.273716    -4.022093
 H    -1.038261    -0.633191    -4.558583
 H    -1.506918     1.056345    -4.043049
 C     0.640759     0.646824    -3.976566
 H     1.379389     0.018607    -4.483730
 H     0.914999     1.704571    -3.945273
 H    -0.392550     1.463927    -1.793478
Ir     0.044369    -0.085562    -2.035836
 C    -2.884769     0.691415    -0.150482
 O    -2.630968    -1.810211    -1.171446
 O    -1.327058    -1.101439     0.930287
 C     2.961980    -0.571096     0.085734
 O     2.639694     1.750425    -1.296097
 O     1.289668     1.253678     0.827784
 P     1.716502     0.531017    -0.614883
 P    -1.669107    -0.552218    -0.615513
 C     0.491650    -1.904024    -2.500064
 O     0.722527    -2.975275    -2.839083
 C    -3.209724     1.686137    -1.084783
 H    -2.644609     1.746956    -2.017990
 C    -3.597852     0.633558     1.050547
 H    -3.351367    -0.133065     1.786653
 C    -4.229449     2.586999    -0.831215
 H    -4.488448     3.371657    -1.543778
 C    -4.615433     1.541893     1.320646
 H    -5.150152     1.475759     2.267937
 C    -4.942331     2.523919     0.375343
 O    -5.910035     3.437012     0.539598
 C    -6.570120     3.511515     1.774256
 H    -5.860579     3.711535     2.595394
 H    -7.277147     4.347205     1.701176
 H    -7.132470     2.587907     1.996309
 C    -3.828751    -2.115167    -0.578371
 C    -3.875854    -2.956315     0.533265
 H    -2.952177    -3.378165     0.932313
 C    -5.003104    -1.571613    -1.099431
 H    -4.942204    -0.909671    -1.964670
 C    -5.099411    -3.245934     1.131504
 H    -5.151125    -3.901326     2.002293
 C    -6.226761    -1.857363    -0.504735
 H    -7.150784    -1.432021    -0.899017
 C    -6.267866    -2.689873     0.613486
Cl    -7.789987    -3.037935     1.366949
 C    -0.339536    -2.008630     1.180832
 C    -0.149902    -3.141358     0.384313
 H    -0.804806    -3.322903    -0.468435
 C     0.484866    -1.790480     2.285060
 H     0.330582    -0.900013     2.893594
 C     0.873328    -4.037286     0.680377
 H     1.033683    -4.915561     0.053542
 C     1.498894    -2.689947     2.591728
 H     2.153000    -2.519929     3.447479
 C     1.691836    -3.807952     1.782835
Cl     2.956061    -4.933293     2.165998
 C     3.623127    -0.285764     1.293139
 H     3.342188     0.599130     1.865625
 C     3.332253    -1.710949    -0.628265
 H     2.830480    -1.951805    -1.566974
 C     4.620363    -1.120427     1.761640
 H     5.142269    -0.912597     2.697427
 C     4.338477    -2.556457    -0.168556
 H     4.592495    -3.445237    -0.745110
 C     4.988305    -2.266259     1.036716
 O     5.962113    -3.016502     1.570723
 C     6.359670    -4.186753     0.906720
 H     6.776131    -3.966517    -0.091730
 H     7.141412    -4.646003     1.524299
 H     5.520134    -4.894060     0.801602
 C     3.788090     2.208505    -0.705138
 C     3.735433     3.205532     0.269034
 H     2.771800     3.623446     0.564240
 C     5.014845     1.669508    -1.093196
 H     5.032107     0.885692    -1.852054
 C     4.911076     3.657937     0.862083
 H     4.884266     4.436689     1.625825
 C     6.191234     2.117991    -0.503365
 H     7.155806     1.699374    -0.794082
 C     6.132775     3.108276     0.476925
Cl     7.595571     3.663447     1.222537
 C     0.283034     2.154097     1.005037
 C     0.028665     3.191305     0.103330
 H     0.640218     3.294744    -0.793458
 C    -0.485363     2.033252     2.163161
 H    -0.268107     1.223523     2.859224
 C    -1.017091     4.077280     0.346579
 H    -1.236034     4.879349    -0.359628
 C    -1.521572     2.923595     2.413448
 H    -2.133457     2.826728     3.310987
 C    -1.790812     3.936596     1.495887
Cl    -3.103132     5.032277     1.788759
