  78
scf done:    -2415.305428
 C     1.603365    -2.440496    -1.648190
 H     1.889218    -2.165726    -2.668701
 H     2.459943    -2.617812    -0.990613
 C     0.390015    -3.178236    -1.438028
 H    -0.217001    -3.451158    -2.307886
 H     0.343857    -3.911745    -0.628198
 H     0.690472    -1.749898     0.674209
Ir     0.139884    -1.138839    -0.742008
 C     3.232686     0.150943     0.190432
 O     1.712441     1.940875    -0.967868
 O     1.076758     1.212805     1.400007
 C    -2.639547     0.848873     0.073927
 O    -3.076333    -1.715557     0.279414
 O    -1.523071    -0.640237     2.041982
 P    -1.777610    -0.717972     0.435329
 P     1.480370     0.587083    -0.063473
 C    -0.636639    -0.600583    -2.417523
 O    -1.154216    -0.335669    -3.408243
 C     3.543351    -0.865270     1.104454
 H     2.738114    -1.361728     1.652338
 C     4.264796     0.760358    -0.529366
 H     4.021965     1.552222    -1.239467
 C     4.860993    -1.258833     1.307763
 H     5.122309    -2.048020     2.014961
 C     5.588652     0.369907    -0.339366
 H     6.408129     0.832975    -0.892076
 C     5.868227    -0.633448     0.579154
 F     7.130702    -1.010323     0.765945
 C     0.867257     2.303186    -2.064369
 H    -0.114306     1.819823    -1.919668
 C     1.491631     1.807466    -3.352820
 H     1.665782     0.722871    -3.300622
 H     2.457873     2.305929    -3.528180
 H     0.832440     2.009049    -4.209817
 C     0.683489     3.804854    -2.028680
 H     0.198164     4.116846    -1.093486
 H     1.655804     4.315179    -2.105084
 H     0.050591     4.131734    -2.866683
 C     1.886899     2.186947     2.073109
 H     2.833334     2.309017     1.517757
 C     2.189080     1.659923     3.459890
 H     2.749846     0.716678     3.399963
 H     1.253206     1.471119     4.006534
 H     2.789290     2.385685     4.028864
 C     1.151456     3.512327     2.081213
 H     0.955984     3.845345     1.052749
 H     0.191780     3.420763     2.613504
 H     1.750827     4.284518     2.586396
 C    -1.975282     2.047200     0.372379
 H    -0.996423     2.010431     0.858031
 C    -3.885004     0.894100    -0.558535
 H    -4.402063    -0.040092    -0.783668
 C    -2.550219     3.272648     0.055548
 H    -2.055336     4.217258     0.289338
 C    -4.464631     2.116858    -0.891863
 H    -5.434714     2.175239    -1.388862
 C    -3.789033     3.289298    -0.578531
 F    -4.338920     4.460128    -0.892229
 C    -2.931260    -3.067665    -0.174901
 H    -2.198536    -3.062082    -1.000184
 C    -4.285860    -3.498461    -0.692184
 H    -4.621311    -2.834397    -1.502174
 H    -5.036344    -3.469718     0.113010
 H    -4.237863    -4.524948    -1.084717
 C    -2.397223    -3.951583     0.934215
 H    -1.429915    -3.571899     1.295283
 H    -3.097318    -3.989861     1.782658
 H    -2.246062    -4.976668     0.563705
 C    -2.513270    -0.199616     2.978022
 H    -3.287902     0.371669     2.435161
 C    -1.817055     0.723136     3.955680
 H    -1.373335     1.577074     3.425316
 H    -1.008882     0.185164     4.474257
 H    -2.526425     1.102320     4.706168
 C    -3.159064    -1.400909     3.637976
 H    -3.684493    -2.008361     2.889550
 H    -2.395336    -2.025956     4.125571
 H    -3.885308    -1.078438     4.399306
