  50
scf done:    -1601.871289
 C    -3.542561     0.983166    -0.419762
 H    -4.132475     1.101911     0.495283
 H    -3.520864     1.886089    -1.038091
 C    -3.519448    -0.306549    -1.066708
 H    -4.091767    -1.128285    -0.623064
 H    -3.482442    -0.348986    -2.159805
 H    -1.268356     0.816768    -1.582437
Ir    -1.613616     0.077308    -0.148274
 C     1.519241     1.722639    -0.046313
 C    -0.720413     3.408905     0.419117
 C     0.159065     1.670514     2.493988
 C     1.473057    -1.704859    -0.003474
 C    -0.778045    -3.292026    -0.685971
 C     0.305111    -1.522610    -2.636192
 P    -0.142433    -1.579962    -0.866575
 P    -0.159601     1.685169     0.692225
 C    -2.047975    -0.749011     1.513582
 O    -2.273737    -1.242841     2.530581
 C     2.692444     1.621389     0.707587
 C     1.620894     1.828518    -1.441139
 C     4.030801     1.749509    -1.302061
 C     2.865467     1.849386    -2.063439
 C     3.938915     1.630990     0.081892
 H     2.647226     1.518013     1.792741
 H     4.844620     1.538195     0.685853
 H     5.008618     1.758803    -1.789587
 H     2.926875     1.940350    -3.150946
 H     0.707596     1.880438    -2.040443
 H    -0.854858     3.567018    -0.659790
 H    -1.699344     3.534930     0.903986
 H    -0.001203     4.141930     0.814708
 H     0.798698     2.505541     2.817302
 H    -0.813472     1.740030     3.001924
 H     0.622962     0.715375     2.777682
 C     1.456192    -1.802424     1.395739
 C     2.706346    -1.673759    -0.660376
 C     3.869625    -1.853954     1.451800
 C     3.896213    -1.743791     0.064495
 C     2.642966    -1.884853     2.117357
 H     0.499613    -1.806686     1.926187
 H     2.611182    -1.969457     3.206558
 H     4.802978    -1.910386     2.017049
 H     4.851608    -1.704815    -0.464190
 H     2.752899    -1.577715    -1.746294
 H    -0.988166    -3.484987     0.375638
 H    -1.725325    -3.368190    -1.239378
 H    -0.059247    -4.037993    -1.057505
 H     0.838983    -0.585570    -2.845190
 H     0.918389    -2.383165    -2.943187
 H    -0.633260    -1.514293    -3.208077
