  98
scf done:    -2230.383430
 C    -0.586649    -3.445268    -0.980821
 H    -1.336964    -3.998017    -0.404459
 H    -0.814566    -3.405723    -2.050759
 C     0.792730    -3.518169    -0.562070
 H     1.047256    -4.120580     0.316728
 H     1.572435    -3.528589    -1.329975
 H     0.508609    -1.243374    -1.683659
Ir     0.008256    -1.557579    -0.148593
 C    -1.092338     1.406474    -1.685753
 C    -3.125096    -0.599023    -1.481092
 C    -2.341910     0.885776     0.878070
 C     1.173929     1.195590     1.703681
 C     3.189797    -0.788311     1.303689
 C     2.401506     0.908864    -0.904820
 P     1.702226    -0.070626     0.481406
 P    -1.639487     0.036532    -0.593988
 C    -0.593592    -2.004178     1.605757
 O    -0.979544    -2.268325     2.659299
 C    -0.992245     2.734636    -1.254510
 C    -0.651456     1.087785    -2.979046
 C    -0.007912     3.384416    -3.366183
 C    -0.120902     2.066627    -3.813255
 C    -0.447153     3.714063    -2.086416
 H    -1.317542     3.015275    -0.252324
 H    -0.366750     4.743158    -1.727090
 H     0.422912     4.150499    -4.015060
 H     0.222442     1.796731    -4.814876
 H    -0.688486     0.049981    -3.319374
 H    -2.751968    -1.021584    -2.428617
 H    -3.780598     0.249327    -1.734288
 C    -3.848200    -1.672903    -0.681569
 H    -3.100119    -2.405073    -0.335764
 H    -4.289525    -1.230220     0.230442
 C    -4.948467    -2.408242    -1.449419
 H    -4.482673    -2.838658    -2.356119
 C    -5.493278    -3.560033    -0.612985
 H    -4.692547    -4.256823    -0.320543
 H    -6.256117    -4.132354    -1.163382
 H    -5.962200    -3.184614     0.312118
 C    -6.070633    -1.476291    -1.893215
 H    -6.856716    -2.027931    -2.431930
 H    -5.709418    -0.680549    -2.562004
 H    -6.542964    -0.992126    -1.021296
 H    -1.507751     1.463505     1.309512
 H    -2.531384     0.080933     1.605006
 C    -3.577666     1.756184     0.684262
 H    -3.507773     2.317293    -0.262690
 H    -4.471518     1.115115     0.583929
 C    -3.805111     2.755025     1.822825
 H    -2.914747     3.412672     1.859819
 C    -5.021965     3.625352     1.534408
 H    -4.926436     4.144880     0.567966
 H    -5.165639     4.388436     2.315092
 H    -5.939514     3.014779     1.494212
 C    -3.923988     2.069027     3.179026
 H    -4.108755     2.803766     3.978091
 H    -3.008712     1.518418     3.442527
 H    -4.763675     1.353372     3.184735
 C     0.774012     0.766790     2.978766
 C     1.027571     2.550562     1.381153
 C     0.073456     3.006119     3.556976
 C     0.477024     3.446476     2.298735
 C     0.232242     1.661492     3.896602
 H     0.856631    -0.288067     3.251391
 H    -0.080285     1.303476     4.880462
 H    -0.363352     3.706639     4.272437
 H     0.362983     4.498098     2.023300
 H     1.321249     2.917064     0.397088
 H     2.826351    -1.284635     2.218849
 H     3.850717     0.034206     1.620457
 C     3.901458    -1.796153     0.413763
 H     3.148421    -2.500609     0.025943
 H     4.323742    -1.283582    -0.470261
 C     5.019177    -2.581417     1.102941
 H     4.574049    -3.080385     1.984686
 C     5.549417    -3.665405     0.171694
 H     4.743789    -4.339396    -0.158250
 H     6.323270    -4.275905     0.662518
 H     6.000529    -3.219442    -0.730707
 C     6.147955    -1.680741     1.592083
 H     6.946034    -2.267594     2.072859
 H     5.798560    -0.937704     2.324780
 H     6.601361    -1.131811     0.748967
 H     1.563295     1.513150    -1.288541
 H     2.595019     0.168320    -1.695015
 C     3.626356     1.768966    -0.620528
 H     3.546751     2.233981     0.376562
 H     4.527265     1.131016    -0.579933
 C     3.846781     2.878222    -1.653311
 H     2.949007     3.526269    -1.629576
 C     5.052312     3.729177    -1.273935
 H     4.946719     4.149133    -0.261264
 H     5.190255     4.567510    -1.974369
 H     5.976794     3.127979    -1.289603
 C     3.978899     2.331630    -3.070178
 H     4.156468     3.144109    -3.791909
 H     3.071176     1.798578    -3.389889
 H     4.827760     1.630566    -3.142884
