  82
scf done:    -2669.011673
 C     0.314277    -2.310902    -2.943086
 H     0.793091    -1.941695    -3.855227
 H     0.878200    -3.103234    -2.443137
 C    -1.116891    -2.299469    -2.845326
 H    -1.709789    -1.921567    -3.683878
 H    -1.615131    -3.082105    -2.267235
 H    -0.199186    -1.958814    -0.469487
Ir    -0.287728    -0.755967    -1.574889
 C     1.468088    -0.188945     1.378770
 O     2.956382    -0.722303    -0.841410
 O     1.826204     1.607394    -0.656515
 C    -1.768526     1.698502     0.568683
 O    -3.417196     0.234127    -1.009214
 O    -2.328881    -0.765985     1.116798
 P    -1.940596     0.081539    -0.251190
 P     1.518420    -0.012421    -0.433624
 C    -0.323930     0.578093    -2.972754
 O    -0.316386     1.365993    -3.804192
 C     1.066544     0.876269     2.190011
 C     1.688769    -1.448719     1.950888
 C     1.163432    -0.556177     4.132532
 C     1.549120    -1.626092     3.323107
 C     0.913309     0.690449     3.562941
 H     0.847200     1.847414     1.744831
 H     0.590374     1.527415     4.186243
 H     1.049595    -0.698758     5.209923
 H     1.736415    -2.608570     3.762460
 H     1.970139    -2.296255     1.322014
 C     4.028902    -1.115831    -0.083728
 C     4.598998    -0.323068     0.912859
 H     4.190066     0.661040     1.139975
 C     4.559729    -2.373259    -0.376559
 H     4.089559    -2.965822    -1.163691
 C     5.700931    -0.803935     1.617346
 H     6.143516    -0.180580     2.397752
 C     5.664227    -2.839366     0.330779
 H     6.077203    -3.823449     0.096407
 C     6.238218    -2.058013     1.333705
 H     7.103135    -2.424985     1.890462
 C     3.027243     2.248568    -0.508072
 C     4.050579     2.033942    -1.433376
 H     3.886712     1.334566    -2.253910
 C     3.201994     3.146104     0.545948
 H     2.382823     3.318461     1.244461
 C     5.264184     2.697212    -1.277657
 H     6.068760     2.517925    -1.994470
 C     4.419579     3.810206     0.686614
 H     4.556505     4.511108     1.513548
 C     5.456568     3.581929    -0.216501
 H     6.411738     4.097873    -0.097887
 C    -1.088504     2.710032    -0.117175
 C    -2.266574     1.945429     1.853570
 C    -1.391748     4.196566     1.759904
 C    -2.075821     3.191218     2.444683
 C    -0.902138     3.956702     0.476367
 H    -0.671014     2.515185    -1.106632
 H    -0.360629     4.737251    -0.062846
 H    -1.239628     5.171654     2.229408
 H    -2.463258     3.378703     3.448981
 H    -2.789217     1.151457     2.388043
 C    -4.480582     0.868165    -0.411603
 C    -5.283797     0.187629     0.503370
 H    -5.059418    -0.851534     0.748860
 C    -4.748372     2.195711    -0.743964
 H    -4.098845     2.701963    -1.460093
 C    -6.360646     0.849907     1.090236
 H    -6.991606     0.318306     1.806599
 C    -5.827123     2.847157    -0.152139
 H    -6.035941     3.887835    -0.411108
 C    -6.634488     2.178563     0.768086
 H    -7.479175     2.692581     1.232066
 C    -2.385110    -2.130460     1.182159
 C    -1.774364    -2.744190     2.274143
 H    -1.249839    -2.119807     2.998949
 C    -3.050192    -2.886938     0.216115
 H    -3.513626    -2.388872    -0.637522
 C    -1.830305    -4.129579     2.399204
 H    -1.348623    -4.612369     3.253085
 C    -3.093614    -4.273480     0.350872
 H    -3.608315    -4.868370    -0.407427
 C    -2.486998    -4.899672     1.438704
 H    -2.524848    -5.986652     1.537441
