  90
scf done:    -2572.416142
 C    -0.470992    -3.413178     0.411595
 H    -0.742268    -3.662656     1.442775
 H    -1.233739    -3.699072    -0.318182
 C     0.913724    -3.455233     0.035506
 H     1.663428    -3.724542     0.785949
 H     1.173430    -3.787335    -0.973590
 H    -0.137870    -1.641302    -1.445051
Ir     0.257295    -1.395493     0.125298
 C    -2.564768     0.270445    -1.335908
 O    -2.853429    -0.463412     1.134880
 O    -1.240028     1.483887     0.688406
 C     2.699577     1.151224     0.451094
 O     3.189422    -0.552480    -1.446829
 O     1.226783     1.038569    -1.827459
 P     1.850634     0.023572    -0.695242
 P    -1.591501    -0.044313     0.168445
 C     0.770454    -1.159693     1.968710
 O     1.076704    -0.998557     3.062001
 C    -1.874707     0.592087    -2.511826
 H    -0.781930     0.617098    -2.504284
 C    -3.963764     0.221594    -1.349354
 H    -4.498864    -0.041330    -0.435673
 C    -2.570987     0.880832    -3.680630
 H    -2.053218     1.134389    -4.607635
 C    -4.668804     0.501416    -2.517272
 H    -5.759180     0.465777    -2.551619
 C    -3.960946     0.831611    -3.666515
 F    -4.630081     1.101559    -4.784371
 C    -2.690616    -1.160773     2.359389
 H    -1.816332    -1.828267     2.282677
 H    -2.495255    -0.434893     3.168364
 C    -3.945631    -1.956093     2.640535
 H    -3.844426    -2.405635     3.643855
 H    -4.803178    -1.262359     2.698755
 C    -4.223059    -3.039039     1.607072
 H    -3.369088    -3.737797     1.579775
 H    -4.258306    -2.575352     0.607539
 C    -5.509844    -3.802605     1.871305
 H    -5.488010    -4.301200     2.853964
 H    -6.382831    -3.129845     1.865074
 H    -5.683518    -4.577915     1.109994
 C    -2.207121     2.506161     0.890300
 H    -1.697323     3.449447     0.633888
 H    -3.047169     2.384822     0.185425
 C    -2.699454     2.545227     2.323927
 H    -3.369815     3.416920     2.425845
 H    -3.321089     1.655264     2.515236
 C    -1.579035     2.625955     3.351703
 H    -0.967334     3.524534     3.151829
 H    -0.902258     1.766804     3.210676
 C    -2.083326     2.652019     4.784819
 H    -2.738270     3.519203     4.967347
 H    -2.667703     1.746475     5.016072
 H    -1.253477     2.702473     5.505538
 C     1.901393     1.957559     1.274736
 H     0.811441     1.895282     1.198889
 C     4.092814     1.220005     0.557426
 H     4.709393     0.590344    -0.085830
 C     2.486533     2.828874     2.186812
 H     1.883825     3.463382     2.839235
 C     4.686596     2.084499     1.473576
 H     5.770948     2.152844     1.578335
 C     3.873804     2.878100     2.274384
 F     4.438040     3.705188     3.150727
 C     3.103308    -1.620238    -2.380869
 H     2.217958    -2.236132    -2.148806
 H     2.965582    -1.196187    -3.390571
 C     4.371458    -2.441308    -2.312063
 H     4.336377    -3.190548    -3.122364
 H     5.230585    -1.784410    -2.536812
 C     4.583745    -3.130043    -0.971272
 H     3.736820    -3.809432    -0.776714
 H     4.544689    -2.370935    -0.172759
 C     5.892814    -3.897758    -0.894734
 H     5.944582    -4.683711    -1.665729
 H     6.757419    -3.231628    -1.048134
 H     6.019377    -4.385006     0.083832
 C     1.967821     2.088245    -2.432607
 H     2.638835     2.552073    -1.687958
 H     2.597676     1.674697    -3.238280
 C     0.984590     3.105974    -2.968725
 H     1.548132     3.886247    -3.509118
 H     0.341503     2.614775    -3.720290
 C     0.120567     3.727021    -1.879552
 H     0.765890     4.306683    -1.195516
 H    -0.307160     2.914165    -1.272207
 C    -0.992318     4.606328    -2.423330
 H    -0.597400     5.431554    -3.037931
 H    -1.682359     4.022649    -3.054100
 H    -1.587440     5.053567    -1.612288
