  94
scf done:    -2750.514372
 C    -0.793336    -3.446541    -0.541280
 H    -1.577189    -3.838051     0.115119
 H    -1.050928    -3.498158    -1.602486
 C     0.582171    -3.542924    -0.148247
 H     0.835497    -4.012034     0.807469
 H     1.358157    -3.663528    -0.908863
 H     0.360583    -1.382812    -1.543256
Ir    -0.075339    -1.489533     0.028020
 O    -1.258238     1.183581    -1.617192
 O    -3.110104    -0.363012    -1.061228
 O    -2.019667     1.018537     0.810347
 O     1.472168     0.967310     1.645022
 O     3.156232    -0.635776     0.809008
 O     1.973348     0.910525    -0.860067
 P     1.638383    -0.074267     0.424933
 P    -1.608511     0.083249    -0.499003
 C    -0.604027    -1.715821     1.877740
 O    -0.927371    -1.850153     2.968186
 C    -2.116560     1.714674    -2.647289
 H    -3.159422     1.633627    -2.305751
 C    -1.928254     0.885778    -3.900000
 H    -2.204592    -0.161429    -3.712803
 H    -0.876486     0.916508    -4.222059
 H    -2.558467     1.271626    -4.715379
 C    -1.754725     3.172701    -2.820030
 H    -1.892076     3.720618    -1.876904
 H    -0.707872     3.276108    -3.143526
 H    -2.399473     3.631580    -3.584450
 C    -3.739332    -1.477855    -0.565814
 C    -3.873501    -1.675296     0.806129
 H    -3.490605    -0.919014     1.494903
 C    -4.231356    -2.412979    -1.474635
 H    -4.105397    -2.234771    -2.543805
 C    -4.477515    -2.837870     1.299234
 C    -4.584614    -3.049868     2.781335
 H    -3.605025    -2.922837     3.267561
 H    -5.269134    -2.316859     3.237974
 H    -4.960137    -4.054687     3.019273
 C    -4.851129    -3.558981    -0.988377
 H    -5.236766    -4.302552    -1.689953
 C    -4.964849    -3.776988     0.385154
 H    -5.437804    -4.690856     0.753374
 C    -2.392725     2.333856     0.715341
 C    -3.680531     2.681107     0.317715
 H    -4.392289     1.886423     0.081484
 C    -1.448863     3.310375     1.033597
 H    -0.448924     2.994261     1.334891
 C    -4.048872     4.028746     0.216291
 C    -5.440700     4.399415    -0.207077
 H    -5.734914     3.867190    -1.124751
 H    -6.174411     4.131170     0.570295
 H    -5.531273     5.478356    -0.394368
 C    -1.812400     4.649409     0.937426
 H    -1.081054     5.425146     1.177919
 C    -3.098071     5.006900     0.527862
 H    -3.370059     6.062680     0.450217
 C     2.464623     1.408281     2.593412
 H     3.458937     1.295116     2.136154
 C     2.369323     0.527579     3.821516
 H     2.577985    -0.519520     3.559775
 H     1.359001     0.583469     4.254557
 H     3.096747     0.845853     4.583330
 C     2.198270     2.871384     2.867000
 H     2.271374     3.457346     1.939891
 H     1.193332     3.006851     3.295612
 H     2.935534     3.262206     3.584089
 C     3.689778    -1.739491     0.192339
 C     3.674083    -1.870078    -1.194056
 H     3.225204    -1.080556    -1.800544
 C     4.252995    -2.727195     0.998795
 H     4.245383    -2.598459     2.082403
 C     4.208586    -3.012321    -1.801365
 C     4.147011    -3.162061    -3.293627
 H     3.102786    -3.251622    -3.634292
 H     4.577023    -2.285214    -3.801896
 H     4.690387    -4.054728    -3.633079
 C     4.799660    -3.855128     0.396523
 H     5.243473    -4.637071     1.017360
 C     4.773299    -4.001553    -0.990531
 H     5.195949    -4.898084    -1.450973
 C     2.501458     2.169014    -0.730547
 C     3.855555     2.350596    -0.463781
 H     4.495578     1.472002    -0.353906
 C     1.645457     3.258992    -0.885447
 H     0.590898     3.069931    -1.088140
 C     4.381489     3.642087    -0.331139
 C     5.843853     3.834062    -0.050605
 H     6.177856     3.200377     0.785257
 H     6.453144     3.558883    -0.926849
 H     6.072523     4.879143     0.200349
 C     2.165672     4.542781    -0.760166
 H     1.504466     5.405507    -0.874324
 C     3.519546     4.734275    -0.479963
 H     3.915738     5.747718    -0.376617
