  90
scf done:    -2922.141199
 C    -0.442168     3.125484    -1.475417
 H    -1.074099     3.177552    -2.368919
 H    -0.808326     3.748318    -0.653010
 C     0.976678     2.960587    -1.649138
 H     1.379348     2.882459    -2.664480
 H     1.657998     3.445469    -0.943630
 H     0.367264     1.887031     0.574858
Ir     0.133730     1.142208    -0.863255
 C    -0.915648    -0.313225     2.077439
 C    -2.983528     1.246709     0.844793
 C    -2.324793    -1.387041    -0.240559
 C     1.864794    -1.932288    -0.136033
 C     3.333083    -0.029259    -1.657642
 C     2.933161     0.365123     1.220149
 P     2.021721    -0.111057    -0.325733
 P    -1.539264     0.156979     0.415962
 C    -0.270202     0.345065    -2.553399
 O    -0.569647    -0.144926    -3.553076
 C    -0.329346    -1.564633     2.306151
 C    -0.905996     0.630413     3.114107
 C     0.259870    -0.916789     4.560412
 C    -0.326839     0.330031     4.345385
 C     0.254468    -1.862246     3.536270
 H    -0.314658    -2.321987     1.520890
 H     0.709430    -2.843833     3.688437
 H     0.716851    -1.150924     5.524571
 H    -0.330962     1.078349     5.141739
 H    -1.340738     1.620062     2.958282
 H    -3.421441     0.896259     1.790876
 H    -2.548139     2.243994     1.018867
 C    -4.049603     1.305114    -0.213489
 C    -3.749469     1.607567    -1.548193
 H    -2.714224     1.819417    -1.824132
 C    -5.381643     1.041460     0.124265
 H    -5.633179     0.781496     1.155805
 C    -4.746138     1.632878    -2.520167
 H    -4.519314     1.862764    -3.562855
 C    -6.391855     1.075415    -0.832344
 H    -7.431029     0.864863    -0.573923
 C    -6.058417     1.366713    -2.148509
 F    -7.017470     1.390739    -3.074765
 H    -2.441546    -1.200481    -1.318319
 H    -1.549066    -2.165819    -0.158701
 C    -3.634075    -1.839686     0.339618
 C    -3.820604    -2.041354     1.713703
 H    -2.993216    -1.874475     2.405992
 C    -4.720313    -2.068068    -0.513766
 H    -4.603190    -1.894351    -1.586527
 C    -5.052727    -2.446865     2.220971
 H    -5.205544    -2.602886     3.290439
 C    -5.955477    -2.482037    -0.025547
 H    -6.804893    -2.651750    -0.689377
 C    -6.107578    -2.662775     1.342697
 F    -7.288651    -3.050134     1.824355
 C     0.988860    -2.601576    -1.000316
 C     2.584556    -2.680100     0.802735
 C     1.531792    -4.715892     0.031855
 C     2.412189    -4.060532     0.890895
 C     0.826325    -3.983013    -0.922956
 H     0.420997    -2.028576    -1.736823
 H     0.138390    -4.487722    -1.605602
 H     1.397890    -5.797817     0.102973
 H     2.977292    -4.628799     1.633667
 H     3.289496    -2.193238     1.477623
 H     2.783553    -0.225727    -2.590423
 H     3.646223     1.024840    -1.699144
 C     4.481688    -0.974897    -1.494219
 C     5.644693    -0.617512    -0.799864
 H     5.760085     0.398982    -0.417880
 C     4.394653    -2.283020    -1.993369
 H     3.500741    -2.589123    -2.541405
 C     6.678361    -1.528554    -0.591707
 H     7.586696    -1.249971    -0.054630
 C     5.416007    -3.205819    -1.797791
 H     5.347368    -4.224082    -2.184303
 C     6.547031    -2.817644    -1.089909
 F     7.528269    -3.697272    -0.892957
 H     2.345110    -0.072245     2.042039
 H     3.917460    -0.129388     1.209984
 C     3.070201     1.845379     1.418342
 C     4.031302     2.599369     0.735438
 H     4.731948     2.107239     0.058945
 C     2.200852     2.520308     2.283995
 H     1.447128     1.948961     2.829119
 C     4.121154     3.980207     0.894677
 H     4.868771     4.570458     0.362231
 C     2.274854     3.898412     2.457982
 H     1.597549     4.427496     3.130649
 C     3.234124     4.615085     1.753653
 F     3.311570     5.935424     1.913441
