  86
scf done:    -2597.123056
 C    -1.113267    -0.642489    -3.658725
 H    -1.410017    -1.668211    -3.901883
 H    -1.918160     0.082926    -3.810571
 C     0.250476    -0.248507    -3.889259
 H     0.952029    -0.983979    -4.297638
 H     0.453651     0.775178    -4.219297
 H    -0.577738     1.147128    -1.956532
Ir    -0.119982    -0.413533    -1.769884
 C    -2.002640     1.294458     0.622080
 C    -3.518041    -0.658600    -0.863781
 C    -1.883195    -1.499813     1.253807
 C     2.013038    -0.677839     1.019337
 C     3.363059     0.258667    -1.318089
 C     1.749246     2.050758     0.150263
 P     1.717576     0.321915    -0.487010
 P    -1.839752    -0.341075    -0.176738
 C     0.415321    -2.248888    -1.733607
 O     0.749920    -3.349537    -1.771882
 C    -2.439871     2.393291    -0.137409
 H    -2.781694     2.240338    -1.164291
 C    -1.554083     1.528984     1.921293
 H    -1.225089     0.691494     2.539505
 C    -2.421207     3.673867     0.385790
 H    -2.755680     4.531965    -0.200427
 C    -1.499433     2.819563     2.450129
 H    -1.115482     2.963960     3.459964
 C    -1.920568     3.903471     1.676564
 O    -1.867623     5.189422     2.072974
 C    -1.285470     5.484826     3.312198
 H    -0.239733     5.133914     3.362148
 H    -1.302516     6.577235     3.415623
 H    -1.852099     5.040430     4.149529
 C    -3.653955    -1.729709    -1.754921
 C    -4.657074     0.063825    -0.491043
 C    -6.033762    -1.344728    -1.892813
 C    -5.906923    -0.275345    -1.008865
 C    -4.903582    -2.075091    -2.260825
 H    -2.763083    -2.286801    -2.053515
 H    -4.994397    -2.914931    -2.953871
 H    -7.013730    -1.608515    -2.297855
 H    -6.787683     0.301470    -0.715831
 H    -4.571180     0.900535     0.205881
 C    -0.900931    -2.478436     1.402153
 C    -2.929283    -1.437006     2.186820
 C    -1.988007    -3.304494     3.394164
 C    -2.976815    -2.328012     3.253324
 C    -0.955458    -3.380404     2.465145
 H    -0.079216    -2.529625     0.688656
 H    -0.176511    -4.138804     2.567025
 H    -2.027165    -4.006686     4.230477
 H    -3.794291    -2.266606     3.975845
 H    -3.713801    -0.684600     2.075846
 C     1.556672    -0.278798     2.284099
 H     1.109494     0.708559     2.410485
 C     2.574852    -1.952363     0.895572
 H     2.933153    -2.298578    -0.077249
 C     1.658035    -1.120851     3.380626
 H     1.292866    -0.818877     4.363847
 C     2.684714    -2.808595     1.989821
 H     3.127691    -3.794635     1.848402
 C     2.218255    -2.396928     3.243788
 O     2.255247    -3.156890     4.355805
 C     2.796533    -4.445184     4.274939
 H     3.857176    -4.427997     3.967877
 H     2.725399    -4.880751     5.279592
 H     2.235683    -5.084142     3.569545
 C     3.409131     0.455482    -2.701210
 C     4.562474     0.091425    -0.613520
 C     5.820444     0.321472    -2.664049
 C     5.782730     0.118894    -1.284483
 C     4.631271     0.491633    -3.370187
 H     2.469361     0.567506    -3.244433
 H     4.651973     0.646478    -4.451646
 H     6.778872     0.341861    -3.188619
 H     6.711306    -0.019931    -0.725196
 H     4.545323    -0.076008     0.465752
 C     0.881038     3.006505    -0.378097
 C     2.683823     2.444602     1.120119
 C     1.850143     4.709810     1.033892
 C     2.728655     3.762374     1.563541
 C     0.931203     4.329696     0.060383
 H     0.156762     2.696728    -1.133690
 H     0.235921     5.062817    -0.353829
 H     1.888027     5.746494     1.378254
 H     3.459340     4.053586     2.322212
 H     3.380830     1.715390     1.538229
