  90
scf done:    -2772.250304
 C    -0.658716    -0.349025    -3.596847
 H    -1.211689    -1.226135    -3.951666
 H    -1.131267     0.599245    -3.872034
 C     0.778801    -0.423835    -3.540122
 H     1.262227    -1.355338    -3.854486
 H     1.373597     0.465609    -3.769615
 H     0.065147     1.199058    -1.743858
Ir    -0.011459    -0.420089    -1.544993
 C    -2.189437     1.738452     0.331317
 C    -3.403610    -0.748296    -0.517888
 C    -1.498206    -0.803631     1.597992
 C     2.184775    -1.034778     1.346823
 C     3.391862     0.259772    -0.918299
 C     1.526320     1.724066     0.695388
 P     1.766438     0.079375    -0.088600
 P    -1.780878    -0.035482    -0.046006
 C    -0.161656    -2.325913    -1.497347
 O    -0.298550    -3.468790    -1.536329
 H    -1.270888     2.113164     0.820993
 C    -3.386427     1.951292     1.259814
 H    -3.295107     1.362140     2.184538
 H    -4.296160     1.587106     0.752667
 C    -3.556529     3.432091     1.590416
 H    -4.418755     3.569738     2.262885
 H    -2.667649     3.786581     2.144265
 C    -3.727202     4.263387     0.324821
 H    -3.806514     5.333900     0.574089
 H    -4.679173     3.984611    -0.162131
 C    -2.577616     4.025843    -0.646856
 H    -1.644746     4.420376    -0.206737
 H    -2.741291     4.583889    -1.582953
 C    -2.384823     2.544279    -0.954905
 H    -3.271464     2.156979    -1.489469
 H    -1.523380     2.393364    -1.621359
 C    -3.713706    -0.858321    -1.878338
 H    -2.955273    -0.578645    -2.612576
 C    -4.360102    -1.141442     0.428703
 H    -4.133084    -1.074757     1.495046
 C    -4.954122    -1.335427    -2.292975
 H    -5.208378    -1.428167    -3.350304
 C    -5.599624    -1.630520     0.028339
 H    -6.352214    -1.948034     0.752329
 C    -5.881219    -1.716286    -1.330948
 F    -7.065493    -2.183073    -1.717487
 C    -1.438685    -2.205548     1.660560
 H    -1.670930    -2.799611     0.773382
 C    -1.198905    -0.075581     2.754208
 H    -1.238144     1.013308     2.744791
 C    -1.072549    -2.860231     2.829371
 H    -1.019421    -3.949080     2.880924
 C    -0.815769    -0.718108     3.932607
 H    -0.567710    -0.156222     4.835133
 C    -0.747844    -2.103326     3.951153
 F    -0.350890    -2.724628     5.059587
 H     1.304190    -0.948893     2.009402
 C     3.445139    -0.638102     2.118838
 H     3.410659     0.415961     2.433450
 H     4.314334    -0.726804     1.445175
 C     3.655564    -1.547188     3.326521
 H     4.563840    -1.242372     3.871209
 H     2.811823    -1.424013     4.030382
 C     3.749582    -3.007451     2.902474
 H     3.866963    -3.659617     3.782882
 H     4.657191    -3.145586     2.287484
 C     2.524978    -3.419957     2.095819
 H     1.638112    -3.395918     2.752492
 H     2.623766    -4.459495     1.743926
 C     2.280431    -2.495697     0.906291
 H     3.107000    -2.602224     0.180501
 H     1.362416    -2.794583     0.383940
 C     4.340230     1.219583    -0.541950
 H     4.106964     1.937961     0.247056
 C     3.716813    -0.648297    -1.933758
 H     2.967488    -1.377464    -2.249475
 C     5.584132     1.275895    -1.164584
 H     6.330279     2.022968    -0.887926
 C     4.962210    -0.614283    -2.553703
 H     5.227321    -1.315608    -3.346814
 C     5.879833     0.352772    -2.160904
 F     7.068202     0.401647    -2.757559
 C     1.455651     2.849781    -0.141361
 H     1.644507     2.735753    -1.211183
 C     1.274108     1.897948     2.059772
 H     1.328683     1.051156     2.743127
 C     1.120954     4.101254     0.358973
 H     1.059137     4.977696    -0.288442
 C     0.917808     3.145128     2.575829
 H     0.703152     3.283992     3.637087
 C     0.835313     4.229432     1.715092
 F     0.467650     5.416540     2.191463
