 110
scf done:    -2611.616966
 C    -0.773713    -0.112871    -3.802923
 H    -1.299029    -0.987854    -4.201493
 H    -1.310780     0.824282    -3.985197
 C     0.670497    -0.104510    -3.828824
 H     1.193907    -0.972044    -4.246452
 H     1.190436     0.839591    -4.020345
 H    -0.025133     1.324649    -1.861847
Ir    -0.017247    -0.312182    -1.805053
 C    -1.434536     1.660800     0.674920
 C    -3.292517     0.697128    -1.300477
 C    -2.301342    -1.081459     0.960060
 C     1.429133    -1.040010     1.302016
 C     3.274411    -1.108671    -0.895430
 C     2.286531     1.527417     0.266156
 P     1.778051    -0.174557    -0.281370
 P    -1.793688     0.164234    -0.327894
 C     0.042835    -2.210661    -1.919540
 O     0.136928    -3.353671    -2.055345
 C    -1.277989     2.890704     0.008075
 H    -1.438468     2.944213    -1.070991
 C    -1.201976     1.643247     2.049861
 H    -1.315157     0.720099     2.617788
 C    -0.890662     4.035075     0.680981
 H    -0.769296     4.985959     0.158958
 C    -0.781399     2.784216     2.741176
 H    -0.590633     2.713058     3.812452
 C    -0.611333     3.988129     2.055570
 O    -0.174916     5.134455     2.613926
 C     0.178072     5.129576     3.968574
 H     0.994092     4.414173     4.175304
 H     0.525124     6.142578     4.208034
 H    -0.681375     4.884576     4.617255
 H    -2.806266     1.337427    -2.060293
 C    -4.369762     1.537344    -0.614528
 H    -3.919505     2.377824    -0.064901
 H    -4.907141     0.929615     0.129995
 C    -5.368801     2.052632    -1.648780
 H    -6.155307     2.644205    -1.152168
 H    -4.849438     2.743375    -2.337766
 C    -5.987758     0.912511    -2.451384
 H    -6.673578     1.309755    -3.217438
 H    -6.604673     0.291833    -1.775805
 C    -4.919575     0.034489    -3.095010
 H    -4.377758     0.615333    -3.862922
 H    -5.385006    -0.815330    -3.620426
 C    -3.916949    -0.471609    -2.063307
 H    -4.439034    -1.134762    -1.351112
 H    -3.126222    -1.068927    -2.542987
 H    -1.420547    -1.078839     1.630521
 C    -2.417330    -2.508430     0.419841
 H    -1.511319    -2.775387    -0.138143
 H    -3.253790    -2.572085    -0.295698
 C    -2.640774    -3.507281     1.551855
 H    -2.757093    -4.521566     1.136167
 H    -1.734334    -3.526617     2.179943
 C    -3.836569    -3.143410     2.422961
 H    -3.931240    -3.852645     3.261810
 H    -4.765026    -3.237679     1.830726
 C    -3.720482    -1.714510     2.939497
 H    -2.852038    -1.639861     3.619897
 H    -4.608682    -1.443519     3.533367
 C    -3.542406    -0.732531     1.785147
 H    -4.430497    -0.792799     1.133960
 H    -3.500409     0.302091     2.156574
 C     1.228867    -0.392080     2.529063
 H     1.358890     0.686893     2.610024
 C     1.246192    -2.428647     1.271657
 H     1.380104    -2.977585     0.336699
 C     0.831754    -1.092533     3.661702
 H     0.660498    -0.581436     4.611329
 C     0.873016    -3.148913     2.402841
 H     0.745934    -4.228712     2.324628
 C     0.640612    -2.477321     3.609678
 O     0.226359    -3.072191     4.746129
 C     0.036972    -4.460454     4.751306
 H     0.971571    -5.003048     4.524879
 H    -0.292979    -4.728917     5.762717
 H    -0.738264    -4.771942     4.029402
 H     2.796896    -2.035069    -1.267507
 C     4.347451    -1.526861     0.110583
 H     3.893132    -2.014894     0.986029
 H     4.876644    -0.638038     0.487958
 C     5.356463    -2.461000    -0.554348
 H     6.138069    -2.747765     0.168177
 H     4.844078    -3.396274    -0.844836
 C     5.982600    -1.825318    -1.791433
 H     6.676593    -2.530669    -2.277036
 H     6.591476    -0.956862    -1.479674
 C     4.918935    -1.357312    -2.778974
 H     4.386859    -2.234488    -3.189339
 H     5.387252    -0.849383    -3.637751
 C     3.904889    -0.432633    -2.113475
 H     4.418256     0.490365    -1.791485
 H     3.118914    -0.133926    -2.823075
 H     1.403428     1.838319     0.857306
 C     2.407153     2.537834    -0.878457
 H     1.510788     2.483071    -1.512688
 H     3.262436     2.270500    -1.521422
 C     2.602858     3.950486    -0.335574
 H     2.718457     4.659113    -1.171904
 H     1.690764     4.252607     0.206020
 C     3.793008     4.046509     0.611475
 H     3.870434     5.063403     1.029753
 H     4.727231     3.869720     0.047655
 C     3.689531     3.015017     1.728750
 H     2.816867     3.251565     2.365911
 H     4.576553     3.059101     2.381821
 C     3.525952     1.607940     1.161024
 H     4.416640     1.368445     0.556144
 H     3.492152     0.863134     1.969989
