  50
scf done:    -1800.257307
 C    -3.855484    -1.015149     0.260725
 H    -4.443193    -0.989930    -0.662955
 H    -3.841143    -2.001123     0.735788
 C    -3.824802     0.161445     1.094335
 H    -4.389544     1.045162     0.778818
 H    -3.788896     0.038327     2.181332
 H    -1.579618    -1.041718     1.437020
Ir    -1.918695    -0.092294     0.129929
 C     1.202906    -1.713047    -0.241317
 C    -1.051805    -3.317294    -0.900914
 C    -0.190532    -1.315796    -2.729806
 C     1.184754     1.657925     0.312416
 C    -1.078126     3.166031     1.134192
 C    -0.063179     1.141770     2.859069
 P    -0.457829     1.439669     1.100963
 P    -0.485852    -1.574542    -0.942520
 C    -2.336454     0.979036    -1.390302
 O    -2.545412     1.624157    -2.322466
 C     2.366305    -1.513435    -0.991793
 H     2.307865    -1.284525    -2.056797
 C     1.328401    -1.988815     1.127985
 H     0.426255    -2.121554     1.731627
 C     3.624404    -1.578903    -0.396418
 H     4.536188    -1.401102    -0.969444
 C     2.577752    -2.070986     1.733452
 H     2.686873    -2.286758     2.798074
 C     3.713104    -1.856163     0.959806
 F     4.912431    -1.899299     1.538899
 H    -1.174673    -3.621530     0.147682
 H    -2.036937    -3.372960    -1.386360
 H    -0.340977    -3.991451    -1.402145
 H     0.439855    -2.101222    -3.173364
 H    -1.170476    -1.313658    -3.228189
 H     0.272707    -0.332163    -2.890595
 C     2.397557     1.523072     0.995144
 H     2.410774     1.298563     2.062775
 C     1.217459     1.929927    -1.063177
 H     0.280501     2.021030    -1.620031
 C     3.614644     1.647619     0.327491
 H     4.565845     1.519198     0.847222
 C     2.423417     2.072149    -1.740496
 H     2.459573     2.286995    -2.810201
 C     3.610971     1.920192    -1.032457
 F     4.770868     2.020258    -1.680380
 H    -1.252836     3.503609     0.102667
 H    -2.042672     3.175396     1.662399
 H    -0.368410     3.848126     1.626238
 H     0.455442     0.178559     2.958552
 H     0.546618     1.946389     3.296938
 H    -1.018504     1.068733     3.397260
