  86
scf done:    -2445.818235
 C     1.866510    -2.013712    -1.967236
 H     2.021136    -1.607635    -2.972173
 H     2.787372    -2.075923    -1.379266
 C     0.828737    -2.984506    -1.758791
 H     0.221577    -3.296846    -2.615382
 H     0.978794    -3.778060    -1.021179
 H     1.015741    -1.703490     0.458437
Ir     0.260005    -1.094210    -0.861035
 C     3.125711     0.688756     0.003979
 O     1.208370     2.240457    -0.869788
 O     0.907445     1.195745     1.445176
 C    -2.765857     0.264370     0.309267
 O    -2.718114    -2.343217     0.266544
 O    -1.258949    -1.168872     2.047025
 P    -1.613591    -1.135443     0.455847
 P     1.312173     0.792017    -0.096066
 C    -0.723155    -0.573368    -2.428289
 O    -1.353464    -0.328396    -3.357619
 C     3.971047     1.567100    -0.687495
 H     3.530744     2.367640    -1.284070
 C     3.700466    -0.333283     0.764631
 H     3.053232    -1.040846     1.290120
 C     5.349124     1.429600    -0.612621
 H     6.018344     2.106676    -1.146920
 C     5.082700    -0.478100     0.852685
 H     5.496643    -1.287118     1.454785
 C     5.918218     0.407656     0.159244
 O     7.263341     0.349804     0.173720
 C     7.889965    -0.656221     0.919048
 H     7.614055    -1.664226     0.562381
 H     8.970667    -0.517738     0.788384
 H     7.648739    -0.582281     1.994238
 C     0.222837     2.528421    -1.864936
 H    -0.635850     1.852607    -1.710141
 C     0.820819     2.284219    -3.235877
 H     1.199851     1.254587    -3.309922
 H     1.658782     2.975355    -3.417704
 H     0.067099     2.430828    -4.023414
 C    -0.236079     3.956050    -1.660327
 H    -0.693420     4.080324    -0.669107
 H     0.613869     4.650598    -1.744390
 H    -0.986399     4.227880    -2.417244
 C     1.575708     2.239433     2.165501
 H     2.430059     2.598019     1.565116
 C     2.093730     1.651163     3.461169
 H     2.815058     0.847792     3.255896
 H     1.262559     1.228735     4.045335
 H     2.593896     2.422503     4.066073
 C     0.607696     3.387740     2.371481
 H     0.263187     3.773241     1.402160
 H    -0.267955     3.058783     2.952549
 H     1.093029     4.210245     2.918213
 C    -2.314722     1.538461     0.694086
 H    -1.313387     1.644088     1.119757
 C    -4.039054     0.141617    -0.244648
 H    -4.396817    -0.846301    -0.540066
 C    -3.123483     2.650870     0.538169
 H    -2.791009     3.645165     0.843220
 C    -4.857750     1.258668    -0.418998
 H    -5.846815     1.130166    -0.859303
 C    -4.402850     2.521880    -0.026260
 O    -5.113369     3.658942    -0.150021
 C    -6.394640     3.597912    -0.711402
 H    -7.074000     2.962278    -0.116411
 H    -6.784465     4.623639    -0.718449
 H    -6.370991     3.217802    -1.747948
 C    -2.360395    -3.596068    -0.327391
 H    -1.685090    -3.381147    -1.173563
 C    -3.642439    -4.217239    -0.836816
 H    -4.133186    -3.552457    -1.562698
 H    -4.342182    -4.400219    -0.006447
 H    -3.434133    -5.176997    -1.332548
 C    -1.618770    -4.468197     0.666082
 H    -0.715800    -3.954146     1.027232
 H    -2.253599    -4.710178     1.532184
 H    -1.309428    -5.410468     0.189026
 C    -2.236917    -0.994103     3.076525
 H    -3.130047    -0.510105     2.641593
 C    -1.630650    -0.067485     4.109219
 H    -1.370026     0.896009     3.649871
 H    -0.710747    -0.509607     4.521506
 H    -2.336192     0.112400     4.934039
 C    -2.632793    -2.345312     3.637197
 H    -3.104415    -2.956018     2.856183
 H    -1.745863    -2.878403     4.012826
 H    -3.346110    -2.225241     4.466706
