 102
scf done:    -2682.510191
 C    -0.431426    -3.251040    -2.252840
 H    -0.080106    -3.227872    -3.289714
 H     0.092349    -3.987195    -1.634158
 C    -1.818098    -2.978515    -1.980355
 H    -2.486316    -2.751570    -2.817588
 H    -2.313137    -3.496295    -1.153504
 H    -0.489331    -2.206392     0.058816
Ir    -0.614588    -1.320390    -1.315804
 C     1.510171     0.173237     1.021436
 C     2.567734    -2.165455    -0.276176
 C     2.545726     0.264860    -1.872440
 C    -1.470522     1.715675     0.397658
 C    -3.602782     0.496404    -1.036927
 C    -2.707536    -0.639920     1.506353
 P    -2.051637     0.043231    -0.091563
 P     1.507219    -0.666822    -0.616850
 C    -0.697619    -0.325112    -2.939718
 O    -0.697766     0.314083    -3.900426
 C     1.817869     1.516252     1.262807
 C     1.038025    -0.601087     2.094788
 C     1.239534     1.272209     3.602794
 C     0.911062    -0.064348     3.371589
 C     1.683995     2.055806     2.542701
 H     2.150651     2.165314     0.457729
 H     1.924176     3.109680     2.699591
 H     1.135815     1.700896     4.602387
 H     0.547369    -0.692515     4.188915
 H     0.749414    -1.640589     1.921907
 H     2.036899    -2.720246     0.511103
 H     2.478171    -2.772250    -1.189567
 C     3.999562    -1.910703     0.075831
 C     5.008236    -2.095216    -0.878917
 H     4.750312    -2.480108    -1.869451
 C     4.361813    -1.436767     1.343519
 H     3.585961    -1.284912     2.097009
 C     6.333677    -1.792560    -0.574561
 H     7.110618    -1.934987    -1.329457
 C     5.685034    -1.120700     1.663489
 C     6.031909    -0.607260     3.030847
 H     5.226521     0.024263     3.434069
 H     6.181624    -1.439063     3.739280
 H     6.959641    -0.017308     3.016637
 C     6.670258    -1.301703     0.684677
 H     7.710755    -1.055515     0.913818
 H     3.258203    -0.491993    -2.236590
 H     1.854654     0.469050    -2.700278
 C     3.275360     1.521786    -1.507451
 C     2.785363     2.760120    -1.939625
 H     1.897846     2.794613    -2.577274
 C     4.428932     1.494882    -0.718612
 H     4.824744     0.535455    -0.383919
 C     3.417677     3.939388    -1.554100
 H     3.028885     4.902397    -1.894995
 C     5.069933     2.669236    -0.314474
 C     6.268827     2.599418     0.586032
 H     6.845648     3.535082     0.570081
 H     5.959971     2.413788     1.628394
 H     6.934361     1.772217     0.298804
 C     4.546007     3.896346    -0.737480
 H     5.033859     4.826118    -0.432209
 C    -0.730117     2.440467    -0.544954
 C    -1.790113     2.325621     1.614391
 C    -0.658923     4.349539     0.929214
 C    -1.378422     3.630755     1.881056
 C    -0.337660     3.750726    -0.288863
 H    -0.456516     1.963466    -1.489795
 H     0.239714     4.300582    -1.035112
 H    -0.341273     5.374042     1.138098
 H    -1.631136     4.089940     2.839792
 H    -2.374728     1.793835     2.365977
 H    -3.232869     0.847334    -2.012178
 H    -4.119206    -0.458006    -1.220168
 C    -4.481027     1.520291    -0.387276
 C    -5.546638     1.157892     0.448030
 H    -5.802460     0.104611     0.580844
 C    -4.211181     2.882584    -0.558506
 H    -3.384986     3.180031    -1.209990
 C    -6.295884     2.132807     1.101142
 H    -7.127264     1.836338     1.745405
 C    -4.945134     3.875559     0.096302
 C    -4.583685     5.320920    -0.086397
 H    -3.576869     5.520967     0.314646
 H    -4.567192     5.597921    -1.152034
 H    -5.293403     5.984773     0.426863
 C    -5.993599     3.482679     0.934005
 H    -6.582331     4.242553     1.455077
 H    -1.894724    -0.491976     2.233307
 H    -3.562323    -0.019803     1.819807
 C    -3.079861    -2.090381     1.429059
 C    -4.300189    -2.510634     0.887191
 H    -5.031610    -1.773723     0.552127
 C    -2.179822    -3.066804     1.863584
 H    -1.231413    -2.748858     2.303606
 C    -4.592064    -3.866620     0.771313
 H    -5.548871    -4.181016     0.347709
 C    -2.445529    -4.433568     1.740602
 C    -1.417508    -5.444543     2.157289
 H    -0.948524    -5.172768     3.115096
 H    -1.853283    -6.448150     2.261735
 H    -0.611719    -5.508236     1.406971
 C    -3.668843    -4.823488     1.186450
 H    -3.900063    -5.886911     1.082023
