  98
scf done:    -2754.269583
 C     0.872555    -3.668884    -0.916069
 H     1.527211    -3.859577    -1.773698
 H     1.267987    -4.069062     0.023141
 C    -0.551404    -3.660008    -1.127638
 H    -0.936729    -3.834134    -2.137953
 H    -1.208696    -4.034671    -0.337151
 H    -0.073857    -2.088533     0.815406
Ir     0.131287    -1.654262    -0.749863
 C     0.982680     0.507083     1.803543
 C     3.183085    -1.140961     0.995676
 C     2.392072     1.128051    -0.670498
 C    -1.820664     1.361295    -0.679144
 C    -3.135321    -0.915774    -1.780664
 C    -2.753098    -0.670382     1.116641
 P    -1.854371    -0.462039    -0.494409
 P     1.685464    -0.280287     0.305357
 C     0.507713    -1.202189    -2.566894
 O     0.789147    -0.905663    -3.645809
 C     0.970064    -0.187496     3.024562
 H     1.455465    -1.162678     3.104574
 C     0.326758     1.738963     1.749901
 H     0.302121     2.315647     0.823918
 C     0.331102     0.329617     4.141064
 H     0.321057    -0.209492     5.090298
 C    -0.325549     2.269956     2.862977
 H    -0.828577     3.232053     2.765938
 C    -0.330789     1.564194     4.070225
 O    -0.934227     1.985978     5.197562
 C    -1.632139     3.199547     5.172809
 H    -2.456645     3.183241     4.438028
 H    -2.053292     3.341459     6.176008
 H    -0.968427     4.051007     4.940374
 H     2.807571    -2.106752     1.370948
 H     3.557350    -0.562434     1.852946
 C     4.293368    -1.350823     0.003818
 C     5.590843    -0.929475     0.315045
 H     5.778238    -0.436452     1.272761
 C     4.065546    -1.950493    -1.241756
 H     3.056471    -2.285906    -1.491185
 C     6.635367    -1.100184    -0.589745
 H     7.639207    -0.757933    -0.326804
 C     5.107249    -2.109591    -2.153252
 H     4.908015    -2.573333    -3.122615
 C     6.396622    -1.686525    -1.831361
 H     7.213081    -1.815159    -2.546218
 H     1.566626     1.851218    -0.771431
 H     2.550849     0.715414    -1.677712
 C     3.651379     1.790684    -0.189529
 C     4.744189     1.894357    -1.058393
 H     4.668551     1.468287    -2.062387
 C     3.780899     2.311020     1.105307
 H     2.944320     2.242500     1.803367
 C     5.931560     2.496763    -0.652379
 H     6.772684     2.556071    -1.347236
 C     4.971883     2.906453     1.516643
 H     5.053955     3.300731     2.532669
 C     6.052373     3.002726     0.640484
 H     6.985281     3.469651     0.965446
 C    -2.618383     2.243624     0.064827
 H    -3.326046     1.862966     0.802469
 C    -0.957789     1.906876    -1.631967
 H    -0.328857     1.240778    -2.226905
 C    -2.526882     3.615246    -0.114131
 H    -3.141676     4.305351     0.466903
 C    -0.862922     3.282952    -1.835930
 H    -0.172982     3.663769    -2.589296
 C    -1.643996     4.151190    -1.062877
 O    -1.616851     5.492132    -1.163474
 C    -0.745569     6.083379    -2.088385
 H    -0.979209     5.779862    -3.123898
 H    -0.880460     7.168436    -1.998022
 H     0.308809     5.835121    -1.874332
 H    -3.381569    -1.972253    -1.597016
 H    -2.582963    -0.883766    -2.731705
 C    -4.340578    -0.029913    -1.823053
 C    -4.323789     1.142578    -2.592543
 H    -3.441019     1.372946    -3.193819
 C    -5.486655    -0.300800    -1.063907
 H    -5.541128    -1.217339    -0.472232
 C    -5.403961     2.019534    -2.591046
 H    -5.363498     2.927848    -3.196991
 C    -6.570682     0.576107    -1.058641
 H    -7.453816     0.339912    -0.459977
 C    -6.531548     1.743279    -1.818279
 H    -7.379969     2.431595    -1.814794
 H    -3.766326    -0.252475     1.004958
 H    -2.201399    -0.038020     1.829855
 C    -2.802356    -2.085258     1.612761
 C    -1.920012    -2.506935     2.614341
 H    -1.223113    -1.783506     3.041864
 C    -3.695594    -3.023834     1.082902
 H    -4.404311    -2.724301     0.308856
 C    -1.917785    -3.825751     3.060118
 H    -1.216433    -4.131594     3.840287
 C    -3.696426    -4.345362     1.525152
 H    -4.400573    -5.060059     1.092497
 C    -2.802520    -4.753641     2.512778
 H    -2.798740    -5.790146     2.857935
