  82
scf done:    -3065.787914
 C     0.750626     0.682957     3.702667
 H     1.255548    -0.100503     4.275818
 H     1.318764     1.616037     3.650940
 C    -0.681852     0.731840     3.685783
 H    -1.248547    -0.013460     4.252073
 H    -1.189388     1.696522     3.603778
 H     0.081077     1.621223     1.423214
Ir     0.021556     0.030718     1.768715
 C     2.727535     1.308778    -0.208734
 O     2.993640    -1.120571     0.992590
 O     1.601404    -0.834812    -1.152226
 C    -2.721475    -1.203967    -0.309814
 O    -2.978227     1.110743     1.067602
 O    -1.548560     0.985952    -1.066625
 P    -1.771855     0.183229     0.374892
 P     1.796989    -0.140805     0.356885
 C    -0.011688    -1.810717     2.344397
 O    -0.008020    -2.886095     2.742987
 C     3.510861     1.271842    -1.370546
 C     2.706171     2.465140     0.576005
 C     4.242210     3.535426    -0.947173
 C     3.463633     3.575110     0.206909
 C     4.264472     2.383076    -1.734095
 H     3.519509     0.373218    -1.988851
 H     4.873813     2.350076    -2.640364
 H     4.826553     4.410212    -1.241472
 H     3.431248     4.481201     0.815702
 H     2.078671     2.491936     1.469740
 C     4.230543    -1.255404     0.411901
 C     4.432675    -2.170545    -0.621571
 H     3.599430    -2.778078    -0.977387
 C     5.287126    -0.472855     0.878042
 H     5.102163     0.240770     1.682448
 C     5.695214    -2.297959    -1.195867
 H     5.882388    -3.005772    -2.005273
 C     6.550001    -0.598034     0.308410
 H     7.392432     0.004626     0.651932
 C     6.737241    -1.507925    -0.725738
 F     7.944517    -1.626738    -1.277796
 C     0.802170    -1.923932    -1.360902
 C     0.821836    -3.032181    -0.509851
 H     1.493517    -3.047007     0.349137
 C    -0.038739    -1.913350    -2.473837
 H    -0.043802    -1.039917    -3.126097
 C    -0.022137    -4.111938    -0.755332
 H    -0.038027    -4.976652    -0.089976
 C    -0.870811    -2.997295    -2.730959
 H    -1.546834    -3.004424    -3.586786
 C    -0.862712    -4.079096    -1.859623
 F    -1.683436    -5.105506    -2.086826
 C    -2.818954    -2.378797     0.440407
 C    -3.418118    -1.096238    -1.520581
 C    -4.298789    -3.325162    -1.213831
 C    -4.203718    -2.154095    -1.966289
 C    -3.606538    -3.436319    -0.010602
 H    -2.276214    -2.470328     1.382853
 H    -3.667220    -4.355831     0.575411
 H    -4.907851    -4.158141    -1.571996
 H    -4.746573    -2.064093    -2.910187
 H    -3.336337    -0.181859    -2.109293
 C    -4.223336     1.239508     0.503554
 C    -4.453546     2.167861    -0.512209
 H    -3.635280     2.794321    -0.869663
 C    -5.261895     0.432144     0.968255
 H    -5.055857    -0.290882     1.758962
 C    -5.725088     2.283823    -1.069127
 H    -5.933456     3.001644    -1.864430
 C    -6.533119     0.544609     0.415235
 H    -7.360976    -0.078329     0.758049
 C    -6.747979     1.468333    -0.601177
 F    -7.963559     1.575571    -1.137370
 C    -0.782591     2.108319    -1.219791
 C    -0.899906     3.210545    -0.367766
 H    -1.602118     3.179185     0.466241
 C     0.116958     2.138666    -2.284378
 H     0.201690     1.264514    -2.929611
 C    -0.099820     4.330801    -0.573982
 H    -0.159741     5.197148     0.086919
 C     0.909948     3.260933    -2.498795
 H     1.633337     3.298891    -3.314009
 C     0.800537     4.339315    -1.631651
 F     1.584447     5.403456    -1.811808
