  90
scf done:    -2374.029774
 C     0.929752     3.590379    -0.480530
 H     0.854921     3.870298    -1.536394
 H     0.264435     4.166235     0.169121
 C     2.197486     3.150757     0.028138
 H     3.053127     3.102963    -0.653436
 H     2.472658     3.421002     1.051808
 H     0.464447     1.928812     1.431869
Ir     0.842495     1.464617    -0.087845
 C    -2.485168     1.576846     1.125944
 O    -2.236459     1.845429    -1.462443
 O    -1.879072    -0.492898    -0.484206
 C     1.754867    -1.973734    -0.010997
 O     2.951081    -0.499214     1.803367
 O     0.471451    -0.887262     2.115079
 P     1.544931    -0.440509     0.960296
 P    -1.415158     1.078911    -0.259927
 C     1.465649     0.942794    -1.836169
 O     1.884966     0.621572    -2.854811
 C    -2.154560     1.108320     2.403879
 C    -3.619981     2.373216     0.948110
 C    -4.103553     2.212714     3.310809
 C    -4.424747     2.690956     2.041743
 C    -2.967670     1.421612     3.489631
 H    -1.252899     0.504370     2.538594
 H    -2.706751     1.053796     4.485196
 H    -4.736288     2.463220     4.165887
 H    -5.308563     3.317956     1.900475
 H    -3.862352     2.741923    -0.050028
 C    -1.626298     2.151990    -2.708028
 H    -2.231564     2.964462    -3.140662
 H    -0.613988     2.546425    -2.524902
 C    -1.571095     0.966951    -3.651078
 H    -0.969449     1.264595    -4.527841
 H    -1.008479     0.149811    -3.167300
 C    -2.931686     0.461414    -4.106498
 H    -3.466217     1.277790    -4.623742
 H    -3.542078     0.221355    -3.220844
 C    -2.841060    -0.751621    -5.017369
 H    -2.269743    -0.524342    -5.931669
 H    -2.329843    -1.589508    -4.515781
 H    -3.836463    -1.106220    -5.324876
 C    -3.259247    -0.849542    -0.518155
 H    -3.624287    -0.964560     0.517569
 H    -3.838499    -0.038215    -0.987838
 C    -3.428933    -2.132569    -1.300527
 H    -4.509985    -2.289326    -1.463120
 H    -2.987549    -1.987260    -2.301304
 C    -2.824214    -3.363644    -0.641674
 H    -3.334362    -3.544574     0.320004
 H    -1.772292    -3.159748    -0.388894
 C    -2.911533    -4.605632    -1.512248
 H    -3.956797    -4.857722    -1.754513
 H    -2.382517    -4.459834    -2.468400
 H    -2.463189    -5.479909    -1.016688
 C     2.859087    -2.818338     0.152490
 C     0.778551    -2.290782    -0.963478
 C     2.006925    -4.280565    -1.572389
 C     0.904832    -3.441990    -1.737517
 C     2.982719    -3.967053    -0.627131
 H     3.618613    -2.563364     0.893595
 H     3.848758    -4.620599    -0.496597
 H     2.107752    -5.179548    -2.185451
 H     0.138182    -3.683420    -2.477776
 H    -0.087029    -1.634288    -1.083703
 C     3.822994     0.607526     1.981038
 H     3.313835     1.526070     1.648413
 H     4.021468     0.691129     3.061370
 C     5.113040     0.401713     1.213564
 H     5.803821     1.218437     1.489208
 H     5.590429    -0.532344     1.560777
 C     4.938261     0.362785    -0.298513
 H     4.485851     1.310899    -0.632883
 H     4.209442    -0.421384    -0.561621
 C     6.237369     0.112573    -1.045634
 H     6.982613     0.896414    -0.833264
 H     6.684833    -0.852475    -0.756911
 H     6.077107     0.091218    -2.134052
 C     0.657161    -2.021619     2.947523
 H     0.927425    -2.898896     2.331669
 H     1.489645    -1.830759     3.644567
 C    -0.638835    -2.270892     3.686700
 H    -0.475452    -3.081100     4.418361
 H    -0.885447    -1.369176     4.274871
 C    -1.791604    -2.618011     2.755644
 H    -1.575410    -3.583245     2.265285
 H    -1.820330    -1.873287     1.944718
 C    -3.139366    -2.677602     3.452751
 H    -3.141527    -3.412805     4.273944
 H    -3.406610    -1.698190     3.881220
 H    -3.942682    -2.959361     2.754400
