 110
scf done:    -2237.622700
 C     0.538057     0.691932     3.142212
 H     1.354777     0.146983     3.628307
 H     0.653463     1.778376     3.204723
 C    -0.786776     0.126937     3.172468
 H    -0.940428    -0.832596     3.677952
 H    -1.646819     0.798750     3.259632
 H    -0.651841     1.477853     0.993403
Ir     0.007576    -0.020248     1.176646
 C     1.629782     2.563443    -0.696854
 C     3.438668     0.618093     0.417181
 C     1.836617    -0.034073    -1.908329
 C    -1.847052    -2.488189    -0.592569
 C    -3.434346    -0.418659     0.651836
 C    -1.988911     0.127221    -1.820711
 P    -1.798320    -0.672916    -0.164444
 P     1.713380     0.760464    -0.239613
 C     0.708745    -1.769737     1.441008
 O     1.101147    -2.843037     1.601804
 H     0.676550     2.632672    -1.250137
 C     2.745928     3.063777    -1.617100
 H     2.812658     2.448437    -2.527393
 H     3.717654     2.970850    -1.100984
 C     2.528905     4.525041    -2.005076
 H     3.357206     4.869835    -2.645458
 H     1.611942     4.602265    -2.616665
 C     2.392463     5.419814    -0.779348
 H     2.197175     6.461131    -1.083184
 H     3.352340     5.430799    -0.231394
 C     1.293901     4.916508     0.149295
 H     0.315825     5.013644    -0.356329
 H     1.235860     5.542251     1.054532
 C     1.507533     3.457452     0.538056
 H     2.428704     3.375935     1.143307
 H     0.684212     3.094439     1.170452
 H     4.140183     0.748197    -0.424798
 H     3.582482     1.483469     1.085928
 C     3.747116    -0.659519     1.180993
 H     3.061429    -0.727870     2.040275
 H     3.531919    -1.543196     0.557256
 C     5.186257    -0.729571     1.670620
 H     5.403822     0.158369     2.292502
 H     5.875901    -0.665434     0.808603
 C     5.489028    -1.991157     2.467165
 H     4.794785    -2.050355     3.323682
 H     5.262962    -2.874078     1.843499
 C     6.924227    -2.065691     2.962061
 H     7.110469    -2.987752     3.533398
 H     7.165348    -1.213838     3.618386
 H     7.638533    -2.044640     2.122962
 H     0.952411     0.332784    -2.456981
 H     2.721280     0.344138    -2.445940
 C     1.832821    -1.555934    -1.881450
 H     2.828740    -1.929249    -1.588518
 H     1.143076    -1.896717    -1.092773
 C     1.417939    -2.191675    -3.200388
 H     2.073845    -1.838029    -4.016572
 H     0.402007    -1.840632    -3.462302
 C     1.424927    -3.713337    -3.159831
 H     2.450498    -4.065964    -2.953036
 H     0.819767    -4.050696    -2.299293
 C     0.903847    -4.356836    -4.434009
 H     0.927390    -5.455495    -4.374390
 H     1.503661    -4.057817    -5.308648
 H    -0.138176    -4.057702    -4.633549
 H    -0.802155    -2.695849    -0.886868
 C    -2.744038    -2.909674    -1.757487
 H    -2.505730    -2.335718    -2.665386
 H    -3.799414    -2.690518    -1.512617
 C    -2.587147    -4.401004    -2.053848
 H    -3.267711    -4.694768    -2.869690
 H    -1.562994    -4.579760    -2.427506
 C    -2.826277    -5.265679    -0.821768
 H    -2.646065    -6.326651    -1.059479
 H    -3.888870    -5.190165    -0.526913
 C    -1.955451    -4.820780     0.347720
 H    -0.890804    -5.000122     0.113609
 H    -2.180372    -5.418834     1.245436
 C    -2.155072    -3.338893     0.642516
 H    -3.205916    -3.174875     0.938813
 H    -1.537442    -3.023539     1.496111
 H    -4.229716    -0.871578     0.034020
 H    -3.367829    -1.009609     1.579622
 C    -3.774221     1.022634     1.007824
 H    -2.867099     1.522149     1.387342
 H    -4.071611     1.575656     0.101669
 C    -4.885645     1.128529     2.042455
 H    -4.575394     0.593861     2.958831
 H    -5.786429     0.600793     1.677990
 C    -5.247832     2.564021     2.396170
 H    -4.340984     3.085059     2.750792
 H    -5.556961     3.096228     1.478810
 C    -6.343667     2.671207     3.444152
 H    -6.582190     3.719722     3.678901
 H    -6.045418     2.179743     4.384255
 H    -7.272867     2.187193     3.102157
 H    -1.166520    -0.291958    -2.426101
 H    -2.926258    -0.216201    -2.287730
 C    -1.911915     1.649435    -1.825832
 H    -2.891395     2.072238    -1.552139
 H    -1.220305     1.978492    -1.033015
 C    -1.474421     2.228986    -3.163664
 H    -2.123893     1.844848    -3.971283
 H    -0.458332     1.862858    -3.403113
 C    -1.476563     3.750894    -3.189830
 H    -2.503738     4.114240    -3.011213
 H    -0.880555     4.125477    -2.338713
 C    -0.939051     4.336231    -4.484988
 H    -0.958463     5.436549    -4.473876
 H    -1.530454     4.001256    -5.352283
 H     0.103615     4.024355    -4.660149
