  58
scf done:    -1830.769910
 C     4.279279     0.780653     0.045277
 H     4.802524     0.681007    -0.911644
 H     4.380203     1.775913     0.489808
 C     4.203515    -0.367607     0.915646
 H     4.671102    -1.304138     0.593233
 H     4.250212    -0.213420     1.998431
 H     2.087690     1.035839     1.357177
Ir     2.267901     0.025158     0.063429
 C    -0.769224     1.805350    -0.290582
 C     1.580328     3.322565    -0.855056
 C     0.652948     1.429187    -2.762095
 C    -0.937488    -1.534869     0.586874
 C     1.316382    -3.118196     1.273122
 C     0.571222    -0.959169     2.970526
 P     0.780971    -1.363587     1.200967
 P     0.919806     1.616338    -0.960583
 C     2.474769    -1.116172    -1.447603
 O     2.546666    -1.799636    -2.374122
 C    -0.929419     2.107945     1.072317
 H    -0.044833     2.279272     1.692424
 C    -1.917187     1.569242    -1.046491
 H    -1.840139     1.323758    -2.106918
 C    -2.186344     2.161415     1.652088
 H    -2.315242     2.385029     2.712982
 C    -3.188191     1.607808    -0.474313
 H    -4.056704     1.384323    -1.093509
 C    -3.329355     1.886144     0.886365
 O    -4.506999     1.882812     1.540889
 C    -5.672112     1.580363     0.821217
 H    -5.620227     0.580809     0.354988
 H    -6.499178     1.597763     1.542299
 H    -5.871247     2.330008     0.034753
 H     1.691587     3.592075     0.204219
 H     2.579685     3.337554    -1.313636
 H     0.919341     4.047170    -1.354080
 H     0.039865     2.239258    -3.185416
 H     1.641886     1.430887    -3.242375
 H     0.181834     0.457893    -2.968823
 C    -2.068681    -1.374413     1.397851
 H    -1.961304    -1.144685     2.459020
 C    -1.137392    -1.815610    -0.767933
 H    -0.272519    -1.926969    -1.428804
 C    -3.348098    -1.478254     0.872613
 H    -4.227187    -1.329588     1.502337
 C    -2.416231    -1.935153    -1.308704
 H    -2.527624    -2.148388    -2.372136
 C    -3.533187    -1.746284    -0.487044
 O    -4.813689    -1.769072    -0.920774
 C    -5.060755    -2.031811    -2.273673
 H    -4.683733    -3.024959    -2.574227
 H    -6.149972    -2.011720    -2.405755
 H    -4.607057    -1.268090    -2.930410
 H     1.380879    -3.512398     0.248859
 H     2.321884    -3.156104     1.717003
 H     0.617639    -3.735665     1.857738
 H    -0.021574    -1.713319     3.509762
 H     1.576717    -0.897578     3.409287
 H     0.098929     0.028393     3.063293
