  82
scf done:    -2145.021509
 C    -3.695754    -0.010585    -1.512028
 H    -4.336106     0.839894    -1.252809
 H    -3.546291    -0.118696    -2.591078
 C    -3.766350    -1.198113    -0.693666
 H    -4.454849    -1.210772     0.158413
 H    -3.664213    -2.174764    -1.176870
 H    -1.395309    -1.114897    -1.631159
Ir    -1.892839    -0.195729    -0.361032
 C     1.192489     0.540926    -1.860522
 C    -0.869096     2.417761    -2.515663
 C     0.361363     2.502502     0.112055
 C     0.721395    -0.566793     1.957760
 C    -1.200239    -2.670268     2.134354
 C     0.653977    -2.611261    -0.099845
 P    -0.436032    -1.525002     0.905213
 P    -0.297265     1.327169    -1.142971
 C    -2.545396     0.878352     1.072023
 O    -2.931013     1.546792     1.929434
 C     1.031306    -0.328662    -2.954678
 H     0.040702    -0.460082    -3.396696
 C     2.465657     0.649290    -1.300673
 H     2.639116     1.304337    -0.446850
 C     2.091600    -1.066601    -3.450832
 H     1.963668    -1.751790    -4.290835
 C     3.543525    -0.100950    -1.779310
 H     4.516862     0.004240    -1.299113
 C     3.358913    -0.974187    -2.854197
 O     4.321498    -1.761649    -3.372196
 C     5.596771    -1.734102    -2.795657
 H     5.573012    -2.039656    -1.734267
 H     6.211885    -2.449195    -3.356243
 H     6.059044    -0.733703    -2.866399
 H    -0.021126     3.021158    -2.881556
 H    -1.159530     1.738286    -3.334091
 C    -2.052697     3.290379    -2.121631
 H    -1.748794     3.991143    -1.324563
 H    -2.828191     2.644114    -1.679177
 C    -2.626196     4.071323    -3.293481
 H    -1.872186     4.736716    -3.744292
 H    -2.982637     3.392175    -4.084379
 H    -3.478089     4.694809    -2.981969
 H    -0.524070     2.857286     0.664866
 H     0.911151     1.880782     0.837253
 C     1.207085     3.683978    -0.346509
 H     0.583819     4.381476    -0.930251
 H     1.998579     3.346415    -1.035527
 C     1.831724     4.418543     0.831834
 H     1.056236     4.795058     1.518515
 H     2.487280     3.751342     1.415264
 H     2.433079     5.279566     0.502321
 C     2.097387    -0.474749     1.702432
 H     2.555250    -1.086142     0.924524
 C     0.193881     0.249988     2.965007
 H    -0.876102     0.224355     3.185182
 C     2.900441     0.423126     2.393732
 H     3.968046     0.508272     2.180713
 C     0.986568     1.150384     3.672549
 H     0.525003     1.779703     4.433577
 C     2.350188     1.258969     3.372514
 O     3.192780     2.134907     3.955475
 C     2.683617     3.026238     4.908930
 H     2.268300     2.498119     5.785061
 H     3.524648     3.649765     5.237271
 H     1.901020     3.677718     4.481503
 H    -0.401323    -3.163300     2.713985
 H    -1.757258    -2.030189     2.838934
 C    -2.141611    -3.684059     1.499969
 H    -1.575196    -4.334802     0.811265
 H    -2.866702    -3.141070     0.873411
 C    -2.865471    -4.539209     2.527980
 H    -2.157441    -5.106086     3.154074
 H    -3.476154    -3.917021     3.201793
 H    -3.538154    -5.264206     2.044931
 H    -0.020523    -3.087465    -0.829136
 H     1.273556    -1.927803    -0.703870
 C     1.507462    -3.651839     0.613251
 H     0.856048    -4.421696     1.059345
 H     2.046294    -3.193842     1.459153
 C     2.501924    -4.309565    -0.332905
 H     1.985584    -4.808700    -1.168168
 H     3.181287    -3.563108    -0.776383
 H     3.115866    -5.064407     0.181726
