  90
scf done:    -2525.370863
 C     0.551170    -3.170093    -1.310685
 H     1.167257    -3.259993    -2.211976
 H     0.952688    -3.726471    -0.457832
 C    -0.874898    -3.053710    -1.457758
 H    -1.303913    -3.047513    -2.465505
 H    -1.524906    -3.509348    -0.704968
 H    -0.237657    -1.824821     0.674938
Ir    -0.061183    -1.166708    -0.810993
 C     1.134761     0.397006     2.024955
 C     3.170147    -1.107985     0.687901
 C     2.338322     1.474426    -0.383498
 C    -1.930946     1.890952    -0.321753
 C    -3.332254    -0.260948    -1.558509
 C    -2.811094    -0.283787     1.325107
 P    -1.981193     0.051700    -0.302114
 P     1.655648    -0.096328     0.335026
 C     0.251704    -0.473340    -2.566783
 O     0.486397    -0.055702    -3.615646
 C     0.318243     1.524904     2.185845
 C     1.433893    -0.377617     3.151470
 C     0.121434     1.092397     4.555250
 C     0.931364    -0.031302     4.406135
 C    -0.182752     1.870963     3.437785
 H     0.057167     2.140659     1.323322
 H    -0.817204     2.755339     3.536079
 H    -0.272304     1.360776     5.538210
 H     1.174544    -0.649895     5.273478
 H     2.052537    -1.271723     3.059094
 H     2.787509    -2.098038     0.987913
 H     3.685715    -0.666349     1.554020
 C     4.147128    -1.242154    -0.449629
 C     5.516248    -1.096373    -0.195751
 H     5.850266    -0.872815     0.820869
 C     3.738918    -1.504967    -1.762715
 H     2.675295    -1.633908    -1.970515
 C     6.452115    -1.203495    -1.221013
 H     7.515048    -1.082054    -0.998195
 C     4.672677    -1.598546    -2.793272
 H     4.330170    -1.794354    -3.812370
 C     6.032975    -1.448033    -2.528061
 H     6.764134    -1.523731    -3.336538
 H     1.514009     2.202444    -0.322776
 H     2.476318     1.254776    -1.452861
 C     3.606723     2.015116     0.208262
 C     4.790758     1.986423    -0.538357
 H     4.777621     1.561133    -1.545305
 C     3.649407     2.551998     1.503112
 H     2.738103     2.593970     2.102412
 C     5.984190     2.472627    -0.009765
 H     6.895300     2.434658    -0.611715
 C     4.843497     3.033100     2.035035
 H     4.855134     3.446511     3.046586
 C     6.016691     2.994304     1.281769
 H     6.952163     3.373936     1.699814
 C    -1.079189     2.513834    -1.242886
 C    -2.711275     2.693046     0.520399
 C    -1.767168     4.691839    -0.459466
 C    -2.621978     4.082644     0.457455
 C    -1.001488     3.902935    -1.317705
 H    -0.462958     1.899022    -1.902262
 H    -0.330926     4.369999    -2.043026
 H    -1.698700     5.781206    -0.507047
 H    -3.234189     4.693436     1.125356
 H    -3.404160     2.240878     1.231255
 H    -3.541594    -1.339451    -1.495147
 H    -2.840005    -0.094203    -2.528494
 C    -4.562925     0.577807    -1.418955
 C    -4.623367     1.848560    -2.009032
 H    -3.777203     2.202390    -2.603143
 C    -5.662966     0.148894    -0.664276
 H    -5.654227    -0.846063    -0.212690
 C    -5.736781     2.666045    -1.840124
 H    -5.758544     3.652504    -2.309422
 C    -6.778761     0.966382    -0.490342
 H    -7.625171     0.607805     0.100437
 C    -6.818045     2.230819    -1.074404
 H    -7.692254     2.872233    -0.940331
 H    -3.845533     0.090612     1.265648
 H    -2.268360     0.335478     2.054690
 C    -2.774640    -1.718610     1.755649
 C    -1.843303    -2.133792     2.714591
 H    -1.163682    -1.397921     3.150171
 C    -3.632350    -2.677549     1.205381
 H    -4.372073    -2.380980     0.458954
 C    -1.764395    -3.467753     3.104513
 H    -1.026548    -3.769181     3.852124
 C    -3.554811    -4.014389     1.591269
 H    -4.231866    -4.746809     1.145143
 C    -2.617056    -4.415708     2.540743
 H    -2.553436    -5.463855     2.842233
