  90
scf done:    -2224.161439
 C    -0.915483    -2.397627    -2.218284
 H    -1.311882    -3.309375    -1.762190
 H    -1.651158    -1.861193    -2.823747
 C     0.469539    -2.328852    -2.577510
 H     1.107695    -3.200932    -2.400680
 H     0.758399    -1.743531    -3.455459
 H    -0.159355     0.080143    -1.896079
Ir     0.103541    -1.119067    -0.804287
 C    -2.517194     1.211324    -0.518451
 O    -2.961168    -1.438512     0.228676
 O    -1.764664     0.214334     1.803326
 C     1.692695     2.006826    -0.343961
 O     2.315378    -0.068595     1.387025
 O     3.325179     0.029786    -0.968487
 P     1.883336     0.179221    -0.186807
 P    -1.777394    -0.299383     0.237398
 C     0.560011    -2.543753     0.395500
 O     0.893866    -3.386782     1.101389
 H    -1.618388     1.842468    -0.649897
 C    -3.506917     1.994218     0.343933
 H    -3.058288     2.209903     1.324028
 H    -4.403630     1.382924     0.539607
 C    -3.927464     3.281887    -0.358689
 H    -4.663078     3.824578     0.257240
 H    -3.047815     3.945537    -0.448201
 C    -4.491877     3.006457    -1.747992
 H    -4.766014     3.950306    -2.246808
 H    -5.427349     2.425480    -1.649238
 C    -3.502800     2.220280    -2.601416
 H    -2.611070     2.845179    -2.791189
 H    -3.938080     1.994600    -3.588412
 C    -3.066117     0.928915    -1.917365
 H    -3.920384     0.236361    -1.845145
 H    -2.298633     0.415597    -2.516738
 C    -4.152461    -1.455882     1.021230
 H    -4.096219    -0.644635     1.767445
 C    -4.203764    -2.791462     1.738573
 H    -3.324719    -2.927793     2.380578
 H    -4.222347    -3.611081     1.004121
 H    -5.106647    -2.862520     2.363699
 C    -5.363619    -1.261825     0.128280
 H    -5.358099    -0.279869    -0.362998
 H    -5.380925    -2.035887    -0.653914
 H    -6.290097    -1.341752     0.716749
 C    -0.772378    -0.183039     2.757766
 H     0.198328    -0.249189     2.238614
 C    -1.107694    -1.533897     3.355735
 H    -1.159100    -2.309114     2.579250
 H    -2.073255    -1.498817     3.884249
 H    -0.329778    -1.834249     4.073544
 C    -0.710046     0.914290     3.799092
 H    -0.467993     1.879672     3.333566
 H    -1.676269     1.012459     4.318049
 H     0.063768     0.686964     4.547474
 H     1.156577     2.085470    -1.308791
 C     2.979199     2.824822    -0.449928
 H     3.614239     2.424973    -1.252449
 H     3.560227     2.727649     0.483576
 C     2.658540     4.297818    -0.691658
 H     3.590886     4.884025    -0.737033
 H     2.179560     4.400842    -1.682309
 C     1.726448     4.863029     0.375138
 H     1.480039     5.914030     0.153091
 H     2.250954     4.866769     1.348278
 C     0.455372     4.030318     0.502043
 H    -0.136936     4.118918    -0.427353
 H    -0.182529     4.417552     1.313433
 C     0.780306     2.562093     0.749029
 H     1.286635     2.456734     1.722290
 H    -0.141381     1.968709     0.826251
 C     3.605136     0.121852     1.973904
 H     4.314658     0.410790     1.180480
 C     4.031761    -1.206377     2.568799
 H     4.070770    -1.984687     1.795746
 H     3.309377    -1.526168     3.335544
 H     5.025083    -1.126300     3.035674
 C     3.527456     1.214812     3.022780
 H     3.258737     2.183767     2.580178
 H     2.769598     0.961708     3.780179
 H     4.497385     1.330521     3.529431
 C     3.639123    -1.051000    -1.851423
 H     2.708216    -1.337776    -2.365889
 C     4.149295    -2.247048    -1.074557
 H     3.380661    -2.617512    -0.380656
 H     5.050161    -1.984893    -0.497759
 H     4.405446    -3.068338    -1.760748
 C     4.640521    -0.515670    -2.852188
 H     4.222644     0.347794    -3.389724
 H     5.563273    -0.193082    -2.344967
 H     4.902053    -1.290093    -3.588461
