  90
scf done:    -3294.689641
 C     0.733072     0.162954     3.912087
 H     0.981158    -0.766067     4.434403
 H     1.531399     0.909431     3.955149
 C    -0.631770     0.600427     3.861699
 H    -1.403254    -0.002374     4.350516
 H    -0.857479     1.669915     3.846804
 H     0.463359     1.407407     1.704474
Ir    -0.051810    -0.122302     1.912859
 C     2.907279     0.564631     0.056369
 O     2.564191    -1.940093     1.043097
 O     1.293470    -1.168786    -1.055084
 C    -3.006840    -0.402097    -0.193845
 O    -2.531507     1.874125     1.242773
 O    -1.266507     1.350499    -0.920200
 P    -1.696938     0.620733     0.516641
 P     1.648418    -0.646910     0.495129
 C    -0.577797    -1.927075     2.343305
 O    -0.849841    -2.992802     2.670038
 C     3.289023     1.499987     1.029733
 H     2.762202     1.519944     1.986854
 C     3.575105     0.555683    -1.170617
 H     3.287302    -0.168920    -1.933790
 C     4.309336     2.401491     0.781747
 H     4.609021     3.142809     1.524373
 C     4.592483     1.467080    -1.435294
 H     5.085748     1.446586    -2.406917
 C     4.961745     2.402992    -0.460268
 O     5.913113     3.333438    -0.628059
 C     6.477782     3.502030    -1.900667
 H     5.703507     3.733194    -2.651699
 H     7.169929     4.349978    -1.826251
 H     7.042938     2.609909    -2.222273
 C     3.750408    -2.282414     0.442001
 C     3.763864    -3.104125    -0.685383
 H     2.823514    -3.475123    -1.095303
 C     4.945652    -1.799443     0.975858
 H     4.909445    -1.151413     1.852813
 C     4.976419    -3.440469    -1.283057
 H     5.016580    -4.082482    -2.164774
 C     6.158674    -2.132132     0.382053
 H     7.106656    -1.763793     0.777792
 C     6.158070    -2.947123    -0.744093
 F     7.318632    -3.263675    -1.319566
 C     0.254996    -2.023208    -1.304403
 C     0.035420    -3.166528    -0.531045
 H     0.707506    -3.400555     0.295301
 C    -0.593251    -1.732823    -2.373330
 H    -0.410872    -0.835507    -2.963212
 C    -1.048609    -3.996169    -0.807232
 H    -1.249986    -4.879199    -0.198634
 C    -1.667508    -2.567130    -2.662533
 H    -2.353285    -2.347742    -3.481748
 C    -1.888633    -3.682327    -1.865662
 F    -2.941056    -4.468185    -2.121244
 C    -3.681298    -0.040422    -1.373586
 H    -3.406411     0.879244    -1.891606
 C    -3.372516    -1.583851     0.449891
 H    -2.864521    -1.883083     1.367750
 C    -4.674852    -0.850244    -1.891371
 H    -5.200571    -0.586822    -2.811004
 C    -4.371628    -2.407842    -0.062430
 H    -4.614890    -3.334738     0.455866
 C    -5.020272    -2.051444    -1.249725
 O    -5.966406    -2.791011    -1.846378
 C    -6.268935    -4.056330    -1.318720
 H    -6.697722    -3.984302    -0.303978
 H    -7.015932    -4.502633    -1.986767
 H    -5.374720    -4.700602    -1.291680
 C    -3.643834     2.438577     0.671849
 C    -3.515593     3.473144    -0.255515
 H    -2.522449     3.829947    -0.532389
 C    -4.907541     1.973829     1.037799
 H    -4.982338     1.159349     1.759909
 C    -4.654217     4.040541    -0.822699
 H    -4.583185     4.851481    -1.549703
 C    -6.047638     2.538058     0.474697
 H    -7.047051     2.190051     0.741082
 C    -5.905894     3.563590    -0.452868
 F    -6.995849     4.103718    -0.998334
 C    -0.194553     2.166687    -1.128565
 C     0.201990     3.145828    -0.213957
 H    -0.351160     3.275867     0.716540
 C     0.490912     2.019748    -2.335572
 H     0.152451     1.265652    -3.045764
 C     1.317401     3.934896    -0.486854
 H     1.664263     4.687019     0.223270
 C     1.593907     2.816197    -2.616552
 H     2.152555     2.705360    -3.547080
 C     2.005715     3.752782    -1.677605
 F     3.093267     4.489411    -1.927341
