  82
scf done:    -2144.994465
 C     2.234588    -1.840656    -1.273699
 H     2.512132    -1.579923    -2.300265
 H     3.041362    -1.680814    -0.552930
 C     1.289357    -2.895748    -1.052565
 H     0.875814    -3.420166    -1.920928
 H     1.396506    -3.536856    -0.172436
 H     0.969067    -1.218126     0.896569
Ir     0.365873    -0.984834    -0.617528
 C     2.973504     1.065734     0.112594
 C     1.071827     2.456968    -1.545766
 C     0.602643     2.157388     1.357654
 C    -2.851432     0.006157     0.567551
 C    -2.805252    -2.501421    -0.804115
 C    -1.712262    -2.239766     2.019916
 P    -1.744451    -1.440346     0.331190
 P     1.149986     1.194603    -0.164660
 C    -0.339505    -0.821581    -2.372204
 O    -0.795734    -0.788148    -3.432984
 C     3.938483     1.615273    -0.747219
 H     3.642534     2.197189    -1.619887
 C     3.449225     0.283405     1.172183
 H     2.739734    -0.245968     1.809124
 C     5.297756     1.427543    -0.535902
 H     6.037386     1.856375    -1.214670
 C     4.809084     0.095825     1.408939
 H     5.118412    -0.525768     2.249590
 C     5.751252     0.677074     0.553791
 O     7.086661     0.554035     0.688796
 C     7.587700    -0.209225     1.749269
 H     7.259357    -1.262106     1.689677
 H     8.681985    -0.175184     1.673177
 H     7.286035     0.200127     2.729858
 H     1.747433     1.997114    -2.288278
 C    -0.296480     2.557116    -2.213580
 H    -0.234537     3.249251    -3.069050
 H    -0.636882     1.588859    -2.596398
 H    -1.069285     2.938179    -1.532522
 C     1.609011     3.841595    -1.182337
 H     2.547727     3.805581    -0.612949
 H     1.795286     4.424226    -2.099252
 H     0.882188     4.409700    -0.584675
 H     1.394186     2.909507     1.519231
 C    -0.730347     2.865171     1.141976
 H    -1.074315     3.303456     2.092035
 H    -0.669992     3.680151     0.410844
 H    -1.504186     2.163087     0.807545
 C     0.512658     1.266821     2.590230
 H     1.481128     0.843996     2.884177
 H     0.135098     1.853475     3.442999
 H    -0.181920     0.432857     2.411635
 C    -3.313571     0.481178     1.803416
 H    -3.049613    -0.031237     2.729488
 C    -3.206433     0.731119    -0.576504
 H    -2.836613     0.413008    -1.554618
 C    -4.098495     1.623993     1.889453
 H    -4.448577     1.998092     2.853317
 C    -4.000324     1.872459    -0.509356
 H    -4.246626     2.402810    -1.429472
 C    -4.453164     2.330924     0.734920
 O    -5.213103     3.428904     0.911361
 C    -5.576268     4.184814    -0.209723
 H    -6.180626     3.598044    -0.923895
 H    -6.179574     5.024259     0.158284
 H    -4.693117     4.585265    -0.738505
 H    -2.651896    -1.979675    -1.764782
 C    -2.222572    -3.901483    -0.956841
 H    -2.688215    -4.412580    -1.814381
 H    -1.137307    -3.868290    -1.122260
 H    -2.418593    -4.517309    -0.065531
 C    -4.306680    -2.537688    -0.541015
 H    -4.730206    -1.535170    -0.388169
 H    -4.815811    -2.986412    -1.409740
 H    -4.560110    -3.150875     0.333850
 H    -1.401914    -1.389991     2.654842
 C    -3.050082    -2.770554     2.528267
 H    -2.978124    -2.988348     3.606353
 H    -3.883554    -2.070722     2.380605
 H    -3.311428    -3.714372     2.027649
 C    -0.627315    -3.303837     2.149978
 H     0.350417    -2.911390     1.842853
 H    -0.563268    -3.638144     3.197987
 H    -0.846772    -4.186717     1.532360
