 106
scf done:    -2833.256026
 C    -1.101236    -1.455732    -2.929424
 H    -1.810996    -2.273987    -2.768241
 H    -1.535408    -0.609624    -3.470314
 C     0.292987    -1.755094    -3.090136
 H     0.622124    -2.799732    -3.062803
 H     0.881023    -1.130187    -3.769464
 H     0.222055     0.539345    -1.965352
Ir    -0.061755    -0.856355    -1.149281
 C    -1.651020     2.131092     0.162527
 C    -3.369631     0.014458    -1.069646
 C    -2.293484    -0.281494     1.603048
 C     2.480089    -1.595832     1.194878
 C     3.457085    -0.096339    -1.030508
 C     1.806737     1.244298     0.990752
 P     1.925566    -0.284241    -0.019509
 P    -1.835805     0.288936    -0.094294
 C    -0.385350    -2.518910    -0.270436
 O    -0.582269    -3.525881     0.255452
 H    -0.816971     2.139122     0.889558
 C    -2.840311     2.826808     0.830627
 H    -3.062313     2.336440     1.788366
 H    -3.746083     2.714669     0.213719
 C    -2.568026     4.309083     1.065869
 H    -3.454292     4.780741     1.521539
 H    -1.744758     4.415683     1.795684
 C    -2.181229     5.017272    -0.224733
 H    -1.996362     6.088523    -0.040989
 H    -3.023168     4.963524    -0.939571
 C    -0.949319     4.359889    -0.830586
 H    -0.107587     4.491275    -0.131341
 H    -0.661912     4.857815    -1.771848
 C    -1.151621     2.869769    -1.086542
 H    -1.857854     2.749539    -1.922902
 H    -0.215789     2.404209    -1.424947
 C    -3.964603     0.984831    -1.873416
 H    -3.556908     1.993582    -1.890563
 C    -3.932904    -1.281403    -1.075389
 O    -3.332321    -2.187192    -0.282516
 C    -3.814825    -3.498255    -0.219038
 H    -4.844500    -3.533311     0.178459
 H    -3.142717    -4.038921     0.457831
 H    -3.794758    -3.987996    -1.208295
 C    -5.083546     0.704242    -2.661199
 H    -5.522433     1.489393    -3.280327
 C    -5.054072    -1.568838    -1.855972
 H    -5.484684    -2.570347    -1.851945
 C    -5.627362    -0.573285    -2.648178
 H    -6.502273    -0.809915    -3.258479
 C    -1.292065    -0.875087     2.367482
 H    -0.311755    -0.983394     1.903683
 C    -3.587049    -0.194362     2.164987
 O    -4.548627     0.359749     1.406373
 C    -5.873285     0.381616     1.849098
 H    -6.250414    -0.634211     2.060804
 H    -6.463099     0.816335     1.032109
 H    -5.996261     1.003653     2.753510
 C    -1.516374    -1.346886     3.659709
 H    -0.703136    -1.805462     4.226375
 C    -3.826785    -0.678255     3.456288
 H    -4.825221    -0.613349     3.889279
 C    -2.792418    -1.245024     4.200067
 H    -2.999161    -1.616042     5.207013
 H     1.572197    -1.794502     1.795135
 C     3.627753    -1.264781     2.147822
 H     3.456906    -0.314224     2.671998
 H     4.549142    -1.128304     1.558628
 C     3.828281    -2.402848     3.146293
 H     4.657595    -2.161326     3.831533
 H     2.923899    -2.493915     3.776095
 C     4.090357    -3.730644     2.443576
 H     4.173831    -4.547150     3.179533
 H     5.066998    -3.674324     1.929425
 C     3.009039    -4.044169     1.414974
 H     2.050921    -4.245310     1.927073
 H     3.261561    -4.963072     0.861322
 C     2.814213    -2.887687     0.441190
 H     3.742337    -2.727083    -0.134368
 H     2.033949    -3.125792    -0.295402
 C     3.474091    -0.738156    -2.267052
 H     2.560598    -1.249205    -2.575765
 C     4.621229     0.587435    -0.616397
 O     4.579710     1.199326     0.583407
 C     5.679983     1.927640     1.039815
 H     6.568466     1.287018     1.182011
 H     5.387308     2.354954     2.007503
 H     5.943466     2.750154     0.351331
 C     4.601776    -0.724815    -3.089269
 H     4.583144    -1.240930    -4.051230
 C     5.750019     0.615548    -1.441080
 H     6.648644     1.146571    -1.126142
 C     5.736973    -0.042151    -2.671871
 H     6.629596    -0.013217    -3.301919
 C     1.422850     1.199750     2.331371
 H     1.231920     0.237729     2.806731
 C     2.028295     2.508617     0.406552
 O     2.333520     2.507804    -0.903138
 C     2.760471     3.684212    -1.526283
 H     1.963510     4.446538    -1.556857
 H     3.030646     3.408710    -2.553323
 H     3.646417     4.110162    -1.022866
 C     1.276383     2.360122     3.093566
 H     0.963958     2.289342     4.137149
 C     1.930458     3.671164     1.175035
 H     2.136928     4.644126     0.728420
 C     1.546578     3.594199     2.514674
 H     1.455477     4.512169     3.100215
