  90
scf done:    -3444.310847
 C    -0.875666     0.108772    -3.779997
 H    -1.338294    -0.787821    -4.205744
 H    -1.516755     0.992869    -3.846272
 C     0.551523     0.257658    -3.881173
 H     1.126633    -0.530655    -4.379229
 H     0.972480     1.257546    -4.024186
 H    -0.151297     1.472472    -1.793057
Ir    -0.002941    -0.153848    -1.837531
 C    -1.746470     1.572148     0.631740
 C    -3.458953     0.047859    -1.093120
 C    -2.071691    -1.281644     0.956066
 C     1.755192    -1.224590     1.007401
 C     3.482409    -0.265008    -1.038079
 C     2.053620     1.607951     0.566536
 P     1.806798     0.027164    -0.337332
 P    -1.790724     0.006073    -0.323334
 C     0.223468    -2.036962    -2.090472
 O     0.397208    -3.153629    -2.308549
 C    -1.344553     1.632092     1.968735
 H    -1.151146     0.710415     2.519203
 C    -1.999484     2.773729    -0.045172
 H    -2.296263     2.750417    -1.096693
 C    -1.185331     2.854560     2.618508
 H    -0.852989     2.896579     3.656712
 C    -1.865852     3.999162     0.595114
 H    -2.066549     4.932139     0.065999
 C    -1.447741     4.031141     1.925580
Cl    -1.234558     5.560947     2.714005
 C    -3.700030    -0.808839    -2.172909
 H    -2.877445    -1.410586    -2.565487
 C    -4.517585     0.817794    -0.601080
 H    -4.361779     1.491819     0.244467
 C    -4.964769    -0.891860    -2.743371
 H    -5.130352    -1.571512    -3.584100
 C    -5.779776     0.738694    -1.185465
 H    -6.593028     1.353080    -0.788879
 C    -6.027648    -0.114396    -2.265651
 C    -7.379868    -0.180597    -2.912207
 H    -8.159299     0.244408    -2.264146
 H    -7.391153     0.384732    -3.858963
 H    -7.659833    -1.217392    -3.151895
 C    -2.995200    -1.100571     1.993784
 H    -3.553815    -0.165022     2.075435
 C    -1.408951    -2.507203     0.863221
 H    -0.689142    -2.669710     0.061894
 C    -3.209806    -2.104582     2.932696
 H    -3.923915    -1.937562     3.743893
 C    -1.644105    -3.516231     1.790747
 H    -1.104105    -4.462202     1.701014
 C    -2.534975    -3.329235     2.852652
 C    -2.744078    -4.409486     3.871648
 H    -1.795771    -4.650197     4.377421
 H    -3.476873    -4.112501     4.634659
 H    -3.101906    -5.337554     3.398523
 C     2.126876    -2.545457     0.720681
 H     2.538251    -2.796528    -0.260107
 C     1.227818    -0.940427     2.271551
 H     0.934803     0.080788     2.517926
 C     1.975713    -3.553924     1.666577
 H     2.262702    -4.581517     1.437749
 C     1.069500    -1.939149     3.227905
 H     0.644644    -1.713577     4.207080
 C     1.441453    -3.243111     2.916206
Cl     1.212413    -4.504634     4.084384
 C     3.685918    -0.061943    -2.403256
 H     2.830572     0.207455    -3.025057
 C     4.578010    -0.632143    -0.243483
 H     4.445783    -0.815001     0.825400
 C     4.954208    -0.213427    -2.961933
 H     5.090641    -0.049713    -4.034428
 C     5.837726    -0.788046    -0.807412
 H     6.677770    -1.081576    -0.171207
 C     6.051153    -0.578450    -2.177860
 C     7.418218    -0.748821    -2.771971
 H     7.800689    -1.768314    -2.604937
 H     7.413928    -0.562442    -3.854796
 H     8.139729    -0.054866    -2.311894
 C     2.875242     1.688862     1.698605
 H     3.365077     0.795139     2.090357
 C     1.463576     2.782260     0.091633
 H     0.824329     2.729438    -0.791834
 C     3.068950     2.902995     2.349781
 H     3.705185     2.939230     3.238449
 C     1.671555     3.995308     0.739125
 H     1.188418     4.897172     0.353899
 C     2.467411     4.078931     1.886542
 C     2.648347     5.385668     2.599522
 H     2.997655     6.170135     1.910335
 H     1.689997     5.729271     3.020273
 H     3.374432     5.303665     3.420241
