  96
scf done:    -2452.598892
 C    -1.095493    -3.329226     0.637166
 H    -1.396758    -3.460902     1.681857
 H    -1.901053    -3.533642    -0.073876
 C     0.261514    -3.626302     0.267975
 H     0.960750    -3.969722     1.036942
 H     0.454549    -4.063403    -0.716014
 H    -0.484334    -1.768556    -1.333197
Ir    -0.045847    -1.487249     0.219781
 C    -2.608699     0.424908    -1.387637
 O    -2.906318     0.098791     1.171391
 O    -1.001586     1.654732     0.406306
 C     2.761074     0.670168     0.400237
 O     2.938195    -1.153683    -1.439885
 O     1.219107     0.697257    -1.848199
 P     1.721005    -0.353610    -0.685856
 P    -1.637443     0.158825     0.126387
 C     0.526520    -1.234608     2.042054
 O     0.880475    -1.076693     3.121856
 C    -1.917412     0.589046    -2.595551
 H    -0.825103     0.541616    -2.598568
 C    -4.004972     0.476177    -1.388497
 H    -4.545941     0.351634    -0.449330
 C    -2.618763     0.808957    -3.774725
 H    -2.066747     0.938280    -4.710276
 C    -4.697003     0.690389    -2.579247
 H    -5.789986     0.727325    -2.565612
 C    -4.019956     0.859912    -3.790569
 C    -4.764049     1.065405    -5.077098
 H    -4.738660     0.152770    -5.695306
 H    -5.819196     1.316095    -4.898977
 H    -4.315362     1.872622    -5.675847
 C    -2.815897    -0.464029     2.468564
 H    -2.062593    -1.269796     2.464922
 H    -2.481305     0.312456     3.179299
 C    -4.170426    -1.008667     2.863968
 H    -4.110615    -1.337034     3.916472
 H    -4.907547    -0.186470     2.838389
 C    -4.642914    -2.157796     1.984141
 H    -3.908619    -2.979881     2.040777
 H    -4.635200    -1.827603     0.932469
 C    -6.024116    -2.669127     2.357661
 H    -6.051174    -3.034224     3.397288
 H    -6.782256    -1.873843     2.270454
 H    -6.337844    -3.499040     1.706647
 C    -1.752506     2.859450     0.393721
 H    -1.061591     3.635168     0.023126
 H    -2.583125     2.784865    -0.328715
 C    -2.266332     3.221032     1.774261
 H    -2.771473     4.200577     1.701980
 H    -3.040841     2.493237     2.067418
 C    -1.177772     3.273666     2.837347
 H    -0.407068     4.005125     2.533166
 H    -0.666123     2.297404     2.871482
 C    -1.706967     3.622435     4.218441
 H    -2.198776     4.608595     4.225828
 H    -2.451963     2.883297     4.555487
 H    -0.901659     3.645428     4.968115
 C     4.151079     0.539410     0.467184
 H     4.650420    -0.190052    -0.172627
 C     2.122763     1.606775     1.224677
 H     1.034690     1.709078     1.177634
 C     4.886481     1.337111     1.341217
 H     5.973626     1.225218     1.383656
 C     2.867691     2.400678     2.088539
 H     2.353928     3.128577     2.723300
 C     4.261710     2.278692     2.166031
 C     5.052563     3.112145     3.130664
 H     4.660056     4.138054     3.192446
 H     5.004598     2.684982     4.146295
 H     6.112817     3.165181     2.845481
 C     2.671483    -2.250170    -2.302225
 H     1.707499    -2.708002    -2.021543
 H     2.580085    -1.873035    -3.335305
 C     3.799921    -3.251344    -2.191963
 H     3.633503    -4.038005    -2.948861
 H     4.745421    -2.751713    -2.468891
 C     3.930072    -3.874247    -0.809120
 H     2.991547    -4.397212    -0.559411
 H     4.025718    -3.066516    -0.065000
 C     5.104809    -4.830929    -0.692493
 H     5.017802    -5.665032    -1.407842
 H     6.059365    -4.320375    -0.900164
 H     5.174130    -5.265671     0.316155
 C     2.048475     1.711054    -2.392434
 H     3.078839     1.618829    -2.008004
 H     2.093658     1.557223    -3.484310
 C     1.476026     3.072770    -2.060803
 H     0.438175     3.118983    -2.433794
 H     1.413204     3.160285    -0.963621
 C     2.294254     4.222175    -2.627983
 H     2.363090     4.121241    -3.725909
 H     3.330766     4.149271    -2.253721
 C     1.720758     5.585113    -2.274957
 H     0.695465     5.698553    -2.662414
 H     1.676411     5.724689    -1.182799
 H     2.327112     6.403662    -2.691269
