 102
scf done:    -2880.902387
 C     2.076925    -0.520700    -3.115025
 H     1.989773     0.135760    -3.986766
 H     3.112917    -0.652523    -2.790428
 C     1.152525    -1.610252    -2.968097
 H     0.389701    -1.767434    -3.738468
 H     1.488852    -2.536425    -2.491867
 H     1.675506    -0.926343    -0.575904
Ir     0.664878    -0.078274    -1.529652
 C     3.381728     1.548193     0.048827
 C     1.450653     3.402271    -0.899922
 C     0.950531     1.934787     1.489976
 C    -2.192754    -0.135145     0.675864
 C    -2.200576    -2.004839    -1.482458
 C    -0.518946    -2.480151     0.858575
 P    -1.017605    -1.130951    -0.317841
 P     1.557535     1.651525    -0.247330
 C    -0.562971     0.733214    -2.751703
 O    -1.333759     1.074818    -3.537936
 C     4.098182     0.409647    -0.334308
 H     3.561086    -0.395542    -0.837418
 C     4.070758     2.566050     0.724376
 H     3.548571     3.465812     1.059075
 C     5.456481     0.280216    -0.055629
 H     6.016666    -0.609839    -0.347893
 C     5.428382     2.457506     1.007780
 H     5.968896     3.245170     1.535635
 C     6.106336     1.309636     0.612051
 F     7.403267     1.196309     0.884487
 H     2.094040     4.043398    -0.279461
 H     1.900160     3.350386    -1.902617
 C     0.064375     3.966351    -0.956748
 C    -0.707963     3.859819    -2.117038
 H    -0.281770     3.397948    -3.008237
 C    -0.493672     4.606564     0.158078
 H     0.110881     4.727522     1.061616
 C    -2.011552     4.349256    -2.143552
 H    -2.605195     4.251793    -3.055395
 C    -1.797431     5.109836     0.149859
 C    -2.381386     5.749750     1.376172
 H    -2.912483     5.005445     1.994534
 H    -1.601662     6.198473     2.008162
 H    -3.107024     6.534111     1.116548
 C    -2.554904     4.966469    -1.019702
 H    -3.576571     5.355538    -1.052004
 H     1.543714     2.762379     1.916999
 H    -0.078048     2.307508     1.377551
 C     0.946938     0.767145     2.436176
 C    -0.208297     0.489116     3.172912
 H    -1.102603     1.097058     3.021237
 C     2.084011    -0.020794     2.663847
 H     3.002985     0.192645     2.115926
 C    -0.227561    -0.555994     4.094904
 H    -1.141559    -0.761680     4.657481
 C     2.082899    -1.073656     3.582975
 C     3.308384    -1.916431     3.789120
 H     3.538352    -2.036482     4.858807
 H     3.166262    -2.927206     3.372065
 H     4.186999    -1.472872     3.299396
 C     0.905733    -1.337601     4.295566
 H     0.883400    -2.158595     5.017541
 C    -2.397254     1.199995     0.312656
 H    -1.803786     1.638990    -0.493829
 C    -2.957244    -0.673282     1.720403
 H    -2.837994    -1.716759     2.015014
 C    -3.346121     1.983917     0.965473
 H    -3.518044     3.019195     0.670461
 C    -3.893161     0.102368     2.396179
 H    -4.494708    -0.307202     3.209589
 C    -4.078680     1.423150     2.002579
 F    -4.991409     2.165755     2.629679
 H    -2.361312    -1.291619    -2.303670
 H    -1.625470    -2.846284    -1.897819
 C    -3.502716    -2.424321    -0.878977
 C    -3.680250    -3.680207    -0.285120
 H    -2.883200    -4.425143    -0.334833
 C    -4.563385    -1.511795    -0.827066
 H    -4.433356    -0.527645    -1.287124
 C    -4.875277    -3.992291     0.359591
 H    -5.004833    -4.977794     0.813788
 C    -5.763567    -1.800485    -0.173650
 C    -6.841423    -0.760963    -0.073346
 H    -6.609524    -0.040597     0.729424
 H    -6.934330    -0.185313    -1.006092
 H    -7.819152    -1.208911     0.154222
 C    -5.906397    -3.057882     0.423940
 H    -6.838282    -3.308773     0.938004
 H    -0.149757    -1.962431     1.756412
 H    -1.423208    -3.042422     1.137355
 C     0.529418    -3.394436     0.299055
 C     0.196698    -4.507742    -0.478041
 H    -0.851206    -4.767139    -0.641334
 C     1.885046    -3.113138     0.508773
 H     2.147135    -2.253274     1.127145
 C     1.195615    -5.298502    -1.044913
 H     0.921797    -6.166792    -1.649056
 C     2.899394    -3.883070    -0.062715
 C     4.342691    -3.516612     0.130719
 H     4.764996    -3.094688    -0.796765
 H     4.463707    -2.763911     0.922110
 H     4.953736    -4.393892     0.392786
 C     2.536445    -4.984695    -0.848460
 H     3.313797    -5.603828    -1.304889
