  82
scf done:    -5425.843680
 C    -0.659714    -3.370404    -1.796850
 H    -1.324006    -4.056170    -1.261612
 H    -1.058964    -3.025194    -2.754114
 C     0.754293    -3.485569    -1.620479
 H     1.151475    -4.255934    -0.952791
 H     1.426762    -3.227358    -2.442098
 H     0.292473    -0.985124    -2.025117
Ir     0.031887    -1.713887    -0.583398
 C    -1.471558     1.517443    -0.711709
 O    -2.875227    -0.582231    -1.664137
 O    -2.628214    -0.186108     0.883494
 C     1.826540     0.164563     1.865660
 O     3.313161    -1.011898     0.085497
 O     1.891714     0.975185    -0.713638
 P     1.751955    -0.439443     0.157358
 P    -1.713754    -0.270499    -0.511708
 C    -0.175965    -2.724013     1.058274
 O    -0.234992    -3.360571     2.006608
 C    -2.022049     2.462138     0.160728
 H    -2.641118     2.130261     0.995010
 C    -0.690471     1.950307    -1.790232
 H    -0.236907     1.216741    -2.460100
 C    -1.782828     3.820304    -0.030260
 H    -2.201001     4.563339     0.650495
 C    -0.455125     3.303907    -1.995596
 H     0.167023     3.645890    -2.823567
 C    -0.995904     4.231926    -1.105145
Cl    -0.655873     5.912644    -1.317300
 C    -3.915487     0.284077    -1.901894
 C    -5.026276     0.309177    -1.058981
 H    -5.070157    -0.360198    -0.198945
 C    -3.853028     1.127378    -3.010358
 H    -2.976759     1.088190    -3.658987
 C    -6.074110     1.187096    -1.321842
 H    -6.949785     1.216928    -0.671736
 C    -4.897918     2.005775    -3.276193
 H    -4.859708     2.672635    -4.138770
 C    -6.003232     2.034711    -2.426264
Cl    -7.303349     3.132568    -2.748872
 C    -2.957252    -1.301472     1.602087
 C    -3.393454    -2.475810     0.983390
 H    -3.473359    -2.522199    -0.104200
 C    -2.851427    -1.233780     2.990781
 H    -2.513423    -0.305443     3.454415
 C    -3.702982    -3.588548     1.759946
 H    -4.034062    -4.515556     1.289587
 C    -3.166300    -2.343009     3.767104
 H    -3.079313    -2.304869     4.853837
 C    -3.584245    -3.520378     3.146737
Cl    -3.959992    -4.908347     4.109314
 C     3.035629     0.452334     2.510949
 H     3.980122     0.237257     2.009236
 C     0.618484     0.434685     2.516583
 H    -0.327848     0.206788     2.021114
 C     3.037295     1.014829     3.781797
 H     3.974213     1.247024     4.290223
 C     0.609352     1.000206     3.786954
 H    -0.328745     1.216966     4.300260
 C     1.822141     1.291016     4.410446
Cl     1.819661     1.999693     5.986364
 C     3.771062    -1.742620    -0.976773
 C     3.571200    -1.330385    -2.295449
 H     3.016999    -0.413181    -2.499350
 C     4.465263    -2.920116    -0.704354
 H     4.600668    -3.224623     0.334781
 C     4.063282    -2.104621    -3.342474
 H     3.908300    -1.798109    -4.378033
 C     4.963827    -3.691167    -1.748775
 H     5.506473    -4.616223    -1.548419
 C     4.756659    -3.281679    -3.066042
Cl     5.367577    -4.244590    -4.369840
 C     2.617643     2.055112    -0.281773
 C     3.980352     2.146833    -0.559823
 H     4.476204     1.341509    -1.104510
 C     1.966537     3.071503     0.416924
 H     0.901276     2.973402     0.630060
 C     4.696334     3.263918    -0.136559
 H     5.763549     3.352542    -0.345418
 C     2.676727     4.190653     0.835365
 H     2.176722     4.996349     1.374612
 C     4.041264     4.279499     0.558920
Cl     4.932309     5.668791     1.084423
