  74
scf done:    -2835.048648
 C    -3.344414    -2.086896    -0.250643
 H    -4.022190    -1.893538    -1.089230
 H    -2.986848    -3.121541    -0.221899
 C    -3.573079    -1.393332     0.994335
 H    -4.416327    -0.696872     1.060669
 H    -3.375533    -1.915158     1.936202
 H    -1.091615    -1.852198     0.863773
Ir    -1.803207    -0.623509     0.051547
 C     1.497634    -1.558426    -0.490092
 C    -0.390320    -2.732605    -2.330059
 C     0.573318     0.143332    -2.643558
 C     0.389087     2.043523     0.549778
 C    -1.848469     2.042289     2.362248
 C     0.494228     0.116392     2.724640
 P    -0.677330     0.871305     1.486024
 P    -0.033478    -1.133906    -1.423495
 C    -2.809947     0.733868    -0.826450
 O    -3.485178     1.543101    -1.295905
 C     2.683528    -0.819000    -0.555062
 H     2.774541     0.026973    -1.235363
 C     1.450018    -2.638236     0.406757
 H     0.533464    -3.225248     0.495165
 C     3.773732    -1.120012     0.261439
 H     4.688496    -0.527006     0.209049
 C     2.530136    -2.959514     1.218741
 H     2.475612    -3.796901     1.916115
 C     3.690137    -2.186064     1.151364
Cl     5.030622    -2.555960     2.182421
 H    -0.811256    -3.324533    -1.498429
 C    -1.508558    -2.531326    -3.346326
 H    -1.905688    -3.506135    -3.670620
 H    -2.337872    -1.951170    -2.915963
 H    -1.146093    -2.010953    -4.246308
 C     0.789394    -3.501849    -2.911939
 H     1.614262    -3.609697    -2.193041
 H     0.460708    -4.515158    -3.195039
 H     1.189138    -3.026679    -3.817666
 H     1.064235     0.868186    -1.970397
 C     1.589766    -0.349012    -3.670333
 H     2.067673     0.513809    -4.161940
 H     2.384057    -0.970204    -3.234328
 H     1.097508    -0.938389    -4.457953
 C    -0.562638     0.892795    -3.328238
 H    -1.251751     1.339754    -2.604053
 H    -0.144934     1.708685    -3.939351
 H    -1.146836     0.242211    -3.994999
 C    -0.236078     2.922874    -0.349994
 H    -1.325769     2.954265    -0.417746
 C     1.787893     2.034307     0.586561
 H     2.320898     1.369059     1.265184
 C     0.498891     3.747771    -1.191641
 H    -0.000844     4.419126    -1.891634
 C     2.541060     2.849464    -0.258343
 H     3.631850     2.824812    -0.227949
 C     1.893304     3.697621    -1.151131
Cl     2.820006     4.693848    -2.221443
 H    -2.509082     2.328199     1.524365
 C    -2.707342     1.287277     3.370555
 H    -3.564110     1.907922     3.676651
 H    -3.094717     0.351347     2.943609
 H    -2.137535     1.046191     4.281049
 C    -1.256932     3.317986     2.949958
 H    -0.607878     3.846551     2.237218
 H    -2.072595     4.004340     3.230017
 H    -0.672686     3.120849     3.858650
 H     1.277170    -0.281102     2.053402
 C     1.129530     1.087101     3.716465
 H     1.988112     0.603619     4.209801
 H     1.487373     2.016410     3.252444
 H     0.415608     1.360774     4.507240
 C    -0.103302    -1.083074     3.452953
 H    -0.570548    -1.784419     2.749292
 H     0.693010    -1.611911     4.000431
 H    -0.864663    -0.777519     4.185190
