 100
scf done:    -2904.586738
 C     0.974473     3.390949    -0.537443
 H     1.638314     3.814779     0.223535
 H     1.437369     3.333441    -1.527217
 C    -0.443063     3.613518    -0.423843
 H    -0.807467     4.221984     0.412359
 H    -1.043222     3.727660    -1.330626
 H    -0.122598     1.389262    -1.588979
Ir     0.025592     1.559523     0.030802
 C     1.410301    -1.357675    -1.454529
 C     3.192048     0.864026    -0.992159
 C     2.473945    -0.867577     1.190609
 C    -1.649387    -1.169955     1.393676
 C    -3.421362     1.000310     0.799661
 C    -2.487649    -0.617919    -1.347046
 P    -1.887952     0.194364     0.192573
 P     1.749008    -0.001585    -0.260983
 C     0.228354     1.936623     1.894225
 O     0.378178     2.237702     2.995430
 C     1.759107    -2.689551    -1.208817
 H     2.309179    -2.952304    -0.304453
 C     0.686835    -1.069022    -2.620615
 H     0.371908    -0.040604    -2.808867
 C     1.378301    -3.698552    -2.091977
 H     1.645987    -4.734946    -1.866680
 C     0.330707    -2.075789    -3.508359
 H    -0.247521    -1.819343    -4.399866
 C     0.657185    -3.413474    -3.255030
 C     0.214175    -4.497070    -4.192498
 H     0.563632    -4.306371    -5.219425
 H     0.590305    -5.482146    -3.882511
 H    -0.886131    -4.550283    -4.232246
 C     3.587713     0.707318    -2.317300
 H     3.073969    -0.025521    -2.942767
 C     3.873334     1.798057    -0.185198
 O     3.451694     1.884812     1.089683
 C     3.985191     2.852978     1.944264
 H     5.059041     2.681775     2.137873
 H     3.431363     2.769096     2.887803
 H     3.851671     3.871475     1.538891
 C     4.632667     1.463976    -2.852066
 H     4.925471     1.328315    -3.895457
 C     4.920793     2.555533    -0.713879
 H     5.447641     3.279530    -0.091474
 C     5.295214     2.384657    -2.047784
 H     6.114587     2.982870    -2.453915
 C     1.770682    -0.886757     2.392914
 H     0.778742    -0.435593     2.425922
 C     3.754049    -1.464033     1.151298
 O     4.382758    -1.459138    -0.037116
 C     5.709707    -1.886272    -0.134443
 H     6.370352    -1.319037     0.543897
 H     6.017880    -1.698538    -1.170752
 H     5.813364    -2.964309     0.082746
 C     2.302816    -1.467855     3.543469
 H     1.723981    -1.465531     4.468893
 C     4.299248    -2.037656     2.304552
 H     5.290215    -2.491703     2.278719
 C     3.570584    -2.035446     3.494322
 H     4.008561    -2.486662     4.388425
 C    -2.083066    -1.032699     2.715612
 H    -2.689558    -0.170086     3.002597
 C    -0.854103    -2.277550     1.070614
 H    -0.451109    -2.388378     0.063518
 C    -1.734710    -1.977917     3.679310
 H    -2.077640    -1.841566     4.709054
 C    -0.529630    -3.227133     2.031236
 H     0.100675    -4.075016     1.747937
 C    -0.956464    -3.094194     3.357726
 C    -0.547634    -4.095185     4.397392
 H    -1.055190    -3.915087     5.355600
 H    -0.775902    -5.124114     4.078407
 H     0.539355    -4.046866     4.576808
 C    -3.412630     2.368643     1.058558
 H    -2.473346     2.902327     0.895385
 C    -4.620324     0.277442     0.983861
 O    -4.570839    -1.041646     0.732100
 C    -5.719763    -1.824056     0.876673
 H    -6.084924    -1.826667     1.918691
 H    -5.435937    -2.846186     0.596099
 H    -6.533040    -1.483999     0.212092
 C    -4.559398     3.032071     1.495452
 H    -4.530944     4.105418     1.693377
 C    -5.773178     0.938361     1.420516
 H    -6.703762     0.389780     1.568173
 C    -5.734735     2.310383     1.672343
 H    -6.643425     2.813201     2.013330
 C    -2.659993    -1.993107    -1.497279
 H    -2.493303    -2.646347    -0.641365
 C    -2.788939     0.216968    -2.445774
 O    -2.728251     1.538028    -2.219741
 C    -2.918923     2.436599    -3.272986
 H    -2.173315     2.289872    -4.073699
 H    -2.794121     3.441158    -2.850566
 H    -3.932228     2.353455    -3.703950
 C    -3.048569    -2.552101    -2.714286
 H    -3.168319    -3.634060    -2.802284
 C    -3.156755    -0.339837    -3.676039
 H    -3.368730     0.303761    -4.530014
 C    -3.279301    -1.722590    -3.805879
 H    -3.573713    -2.145542    -4.769759
