  82
scf done:    -3587.961022
 C     1.220765    -1.213390    -3.354198
 H     1.265364    -0.457673    -4.144386
 H     2.196558    -1.628726    -3.086126
 C     0.049789    -2.032120    -3.232337
 H    -0.777600    -1.891052    -3.934450
 H     0.150311    -3.059795    -2.872776
 H     0.977240    -1.760759    -0.879082
Ir     0.092291    -0.602785    -1.611045
 C     3.230143     0.277826    -0.293271
 O     1.684386     2.312988    -0.830571
 O     1.044090     0.806042     1.200520
 C    -2.481450     0.243979     0.645303
 O    -2.696206    -2.110280    -0.658987
 O    -1.025810    -1.824494     1.327935
 P    -1.512595    -1.102148    -0.085838
 P     1.474863     0.721812    -0.408430
 C    -0.996506     0.672558    -2.586242
 O    -1.690020     1.364668    -3.178658
 C     3.556125    -0.919258     0.355443
 H     2.770660    -1.536594     0.798513
 C     4.242416     1.043536    -0.877324
 H     3.990297     1.974973    -1.386934
 C     4.877865    -1.338469     0.438292
 H     5.137258    -2.268308     0.946607
 C     5.568999     0.627766    -0.805298
 H     6.366694     1.219484    -1.256993
 C     5.878590    -0.559599    -0.144045
Cl     7.526527    -1.078543    -0.048581
 C     0.638249     3.099523    -1.244421
 C     0.731753     3.708564    -2.494064
 H     1.611775     3.518048    -3.110935
 C    -0.474446     3.303503    -0.427881
 H    -0.532463     2.815372     0.546303
 C    -0.301223     4.534073    -2.929645
 H    -0.234271     5.008622    -3.911319
 C    -1.501083     4.132905    -0.875153
 H    -2.369075     4.301076    -0.234551
 C    -1.419370     4.747194    -2.123752
 H    -2.228921     5.393319    -2.469678
 C     1.707671     1.392389     2.244162
 C     2.651379     2.410525     2.090400
 H     2.897750     2.783429     1.097761
 C     1.365674     0.943064     3.522729
 H     0.614579     0.157854     3.621933
 C     3.259209     2.953260     3.221649
 H     3.999263     3.746950     3.094784
 C     1.975530     1.498240     4.643337
 H     1.701292     1.138511     5.637917
 C     2.931029     2.503683     4.498559
 H     3.412836     2.937658     5.377073
 C    -3.478948     0.835326    -0.138934
 H    -3.742025     0.408796    -1.109901
 C    -2.155362     0.803058     1.883082
 H    -1.376532     0.345087     2.491623
 C    -4.138701     1.975483     0.302033
 H    -4.913945     2.444288    -0.305456
 C    -2.802349     1.951397     2.329496
 H    -2.542139     2.403556     3.287808
 C    -3.785228     2.533317     1.530358
Cl    -4.556049     3.993913     2.051195
 C    -3.901423    -2.403355    -0.070036
 C    -4.978894    -2.607210    -0.933025
 H    -4.812706    -2.514835    -2.008028
 C    -4.065954    -2.517442     1.311138
 H    -3.215618    -2.366098     1.975791
 C    -6.229567    -2.923007    -0.410675
 H    -7.071257    -3.082502    -1.088878
 C    -5.325951    -2.828834     1.819989
 H    -5.455818    -2.915635     2.901354
 C    -6.409904    -3.031718     0.968398
 H    -7.392513    -3.276309     1.377247
 C    -0.089613    -2.824214     1.371421
 C     0.927972    -2.724153     2.318175
 H     0.965195    -1.850604     2.968574
 C    -0.157272    -3.923928     0.514313
 H    -0.960518    -3.985585    -0.222122
 C     1.887590    -3.730953     2.405557
 H     2.684457    -3.649116     3.148745
 C     0.813230    -4.918703     0.604867
 H     0.764918    -5.775090    -0.071616
 C     1.838270    -4.827961     1.546190
 H     2.594861    -5.612693     1.611802
