 102
scf done:    -3301.661070
 C    -0.691099    -0.142802    -3.786771
 H    -1.229017    -1.008067    -4.189237
 H    -1.203839     0.805433    -3.980720
 C     0.751871    -0.166939    -3.785192
 H     1.263818    -1.048631    -4.186620
 H     1.297394     0.764197    -3.968284
 H     0.053601     1.284942    -1.835828
Ir     0.023392    -0.350501    -1.772811
 C    -1.413650     1.657357     0.656057
 C    -3.244611     0.722961    -1.359380
 C    -2.353763    -1.064006     0.939248
 C     1.391006    -1.080232     1.345943
 C     3.287087    -1.220735    -0.802458
 C     2.340905     1.458107     0.304454
 P     1.805746    -0.237314    -0.235510
 P    -1.786179     0.158522    -0.345175
 C     0.042004    -2.252142    -1.882858
 O     0.111454    -3.396230    -2.016207
 C    -1.224015     1.640573     2.041519
 H    -1.394215     0.728638     2.612746
 C    -1.197731     2.869282    -0.019689
 H    -1.328732     2.915605    -1.102846
 C    -0.776279     2.770515     2.726796
 H    -0.603274     2.736977     3.803938
 C    -0.777384     4.010164     0.650385
 H    -0.607600     4.943614     0.111720
 C    -0.538329     3.946286     2.023844
Cl     0.095060     5.332255     2.847678
 H    -2.723099     1.343188    -2.112301
 C    -4.318577     1.595558    -0.709403
 H    -3.863547     2.432196    -0.157651
 H    -4.888957     1.009246     0.027533
 C    -5.278036     2.122926    -1.774697
 H    -6.062425     2.737831    -1.304081
 H    -4.725082     2.794159    -2.456780
 C    -5.903068     0.989199    -2.581488
 H    -6.559301     1.394552    -3.368710
 H    -6.551580     0.390247    -1.916155
 C    -4.839849     0.080041    -3.188898
 H    -4.264925     0.639946    -3.948237
 H    -5.311307    -0.764252    -3.717553
 C    -3.876614    -0.439060    -2.126668
 H    -4.431933    -1.082322    -1.421702
 H    -3.088446    -1.059736    -2.580156
 H    -1.493766    -1.072079     1.635948
 C    -2.479229    -2.494015     0.407699
 H    -1.559011    -2.783085    -0.115323
 H    -3.289877    -2.546178    -0.337805
 C    -2.765639    -3.479982     1.537338
 H    -2.892085    -4.492748     1.121639
 H    -1.888717    -3.523434     2.204238
 C    -3.983416    -3.082948     2.362148
 H    -4.121178    -3.783982     3.201004
 H    -4.892890    -3.158398     1.738449
 C    -3.850488    -1.654598     2.875405
 H    -3.004261    -1.599116     3.584722
 H    -4.750814    -1.358472     3.437930
 C    -3.612688    -0.683282     1.722857
 H    -4.479975    -0.727896     1.043127
 H    -3.561516     0.352682     2.090169
 C     1.165187    -2.466374     1.312404
 H     1.326824    -3.026539     0.388933
 C     1.165242    -0.410993     2.553366
 H     1.336158     0.662229     2.630940
 C     0.706595    -3.154825     2.427395
 H     0.531017    -4.230760     2.384842
 C     0.682034    -1.083666     3.675996
 H     0.484692    -0.546519     4.605485
 C     0.439853    -2.450946     3.602689
Cl    -0.234509    -3.282923     4.964344
 H     2.794747    -2.141194    -1.169950
 C     4.326398    -1.645954     0.235601
 H     3.842136    -2.108700     1.108884
 H     4.866848    -0.762674     0.609860
 C     5.327985    -2.615129    -0.389083
 H     6.085457    -2.906085     0.356800
 H     4.800678    -3.543703    -0.674078
 C     5.996844    -2.016930    -1.622385
 H     6.684033    -2.747399    -2.079315
 H     6.619459    -1.157726    -1.312455
 C     4.967228    -1.542394    -2.642256
 H     4.423480    -2.414020    -3.049066
 H     5.466497    -1.061378    -3.498943
 C     3.961327    -0.581234    -2.017147
 H     4.489676     0.334380    -1.698677
 H     3.199980    -0.275640    -2.750411
 H     1.448134     1.800395     0.863072
 C     2.519943     2.443761    -0.854683
 H     1.642619     2.397999    -1.515966
 H     3.388147     2.143939    -1.465003
 C     2.734322     3.861477    -0.332425
 H     2.892388     4.550288    -1.178219
 H     1.815062     4.196781     0.176334
 C     3.896351     3.947316     0.649767
 H     3.982696     4.969325     1.052676
 H     4.842969     3.739693     0.118109
 C     3.732959     2.940520     1.782195
 H     2.849969     3.213806     2.388793
 H     4.601234     2.975535     2.460140
 C     3.554313     1.526734     1.235307
 H     4.456415     1.254735     0.661959
 H     3.479589     0.798260     2.056486
