  62
scf done:    -2677.937872
 C    -3.901851     1.155554    -0.766722
 H    -4.471206     1.576068     0.068941
 H    -3.765613     1.859649    -1.593684
 C    -4.038375    -0.247860    -1.062847
 H    -4.712454    -0.849116    -0.443278
 H    -4.004352    -0.578556    -2.105485
 H    -1.661149     0.414933    -1.777551
Ir    -2.096576     0.131421    -0.209650
 C     1.149361     1.573650    -0.422271
 C    -1.016003     3.398013    -0.681170
 C    -0.306872     2.380814     1.935713
 C     0.871482    -1.708334     0.413325
 C    -1.472962    -3.299649     0.402664
 C    -0.430934    -2.309612    -2.124200
 P    -0.776017    -1.783465    -0.393414
 P    -0.558867     1.836708     0.192718
 C    -2.621580    -0.257463     1.578204
 O    -2.903326    -0.537342     2.661209
 C     2.290222     1.669277     0.380367
 H     2.207105     1.912693     1.440292
 C     1.311754     1.238608    -1.774716
 H     0.427909     1.135391    -2.410439
 C     3.559500     1.429085    -0.141780
 H     4.441391     1.468181     0.499638
 C     2.572589     1.010339    -2.313537
 H     2.694831     0.747011    -3.365633
 C     3.692151     1.097109    -1.485923
Cl     5.260983     0.732250    -2.126203
 H    -2.047329     3.621678    -0.363909
 C    -0.087559     4.583864    -0.489094
 H     0.945204     4.338555    -0.781284
 H    -0.067145     4.925087     0.557364
 H    -1.094883     3.111912    -1.742238
 H    -0.414001     5.437905    -1.102501
 H     0.502308     3.127748     1.974814
 C    -1.573476     2.936850     2.568466
 H    -2.408139     2.225220     2.496931
 H    -1.891991     3.871600     2.082597
 H     0.045359     1.491682     2.483771
 H    -1.409285     3.157688     3.633751
 C     0.907013    -1.436693     1.789086
 H    -0.027538    -1.314333     2.344166
 C     2.085242    -1.821042    -0.271300
 H     2.102673    -2.005024    -1.346078
 C     2.113067    -1.288724     2.464539
 H     2.134811    -1.071203     3.533756
 C     3.302138    -1.667491     0.389200
 H     4.243633    -1.723457    -0.159531
 C     3.308154    -1.397362     1.753637
Cl     4.816221    -1.133671     2.566090
 H    -1.538133    -3.067748     1.478008
 C    -2.839509    -3.685881    -0.137279
 H    -2.798838    -3.949737    -1.205542
 H    -3.548617    -2.852342    -0.033807
 H    -0.743205    -4.119217     0.301447
 H    -3.241156    -4.555608     0.404375
 H     0.239470    -1.537064    -2.535426
 C     0.107457    -3.714581    -2.347218
 H    -0.634166    -4.478517    -2.071674
 H     1.017078    -3.915828    -1.762428
 H    -1.388573    -2.161925    -2.647408
 H     0.353726    -3.869375    -3.409100
