  90
scf done:    -2723.752436
 C    -0.846716    -0.143520    -3.669737
 H    -1.350296    -1.047476    -4.028652
 H    -1.440084     0.763535    -3.819061
 C     0.587889    -0.076034    -3.764564
 H     1.122812    -0.931636    -4.191709
 H     1.063081     0.884554    -3.985527
 H    -0.076943     1.344084    -1.797442
Ir    -0.005023    -0.284183    -1.701888
 C    -1.647174     1.755280     0.593607
 C    -3.449744     0.160377    -0.966851
 C    -2.097904    -1.050186     1.181425
 C     1.659290    -1.197781     1.262127
 C     3.459242    -0.497589    -0.821095
 C     2.089200     1.580183     0.572752
 P     1.788212    -0.068554    -0.183109
 P    -1.776991     0.109070    -0.208513
 C     0.139870    -2.189408    -1.798323
 O     0.271194    -3.325807    -1.927574
 C    -1.206475     1.927428     1.909045
 H    -1.046716     1.056795     2.545277
 C    -1.857711     2.896065    -0.195073
 H    -2.186300     2.783870    -1.231258
 C    -0.962961     3.197320     2.428486
 H    -0.595996     3.336910     3.446522
 C    -1.637678     4.170352     0.314022
 H    -1.795245     5.063704    -0.292961
 C    -1.177178     4.301872     1.619422
 F    -0.918384     5.521529     2.096693
 C    -3.731340    -0.738912    -1.999997
 H    -2.932094    -1.383561    -2.372027
 C    -4.476832     0.987358    -0.499597
 H    -4.285938     1.696325     0.309564
 C    -5.006547    -0.808724    -2.550574
 H    -5.205199    -1.522405    -3.355115
 C    -5.748263     0.920383    -1.063158
 H    -6.536737     1.578366    -0.686812
 C    -6.037285     0.024016    -2.098285
 C    -7.399365    -0.024002    -2.725564
 H    -8.173407     0.350552    -2.040530
 H    -7.434937     0.599487    -3.634733
 H    -7.669343    -1.047728    -3.023746
 C    -2.925242    -0.718020     2.261399
 H    -3.397596     0.265916     2.310082
 C    -1.555738    -2.336609     1.133328
 H    -0.914983    -2.618831     0.299168
 C    -3.148292    -1.630395     3.289153
 H    -3.779056    -1.342627     4.134927
 C    -1.804958    -3.253618     2.147274
 H    -1.357705    -4.249377     2.089084
 C    -2.583706    -2.911029     3.257465
 C    -2.777860    -3.888196     4.378521
 H    -3.246488    -4.818400     4.020340
 H    -1.805838    -4.164180     4.817493
 H    -3.410357    -3.473930     5.175832
 C     1.982146    -2.551730     1.092240
 H     2.406921    -2.896560     0.146291
 C     1.114209    -0.792030     2.485668
 H     0.858758     0.255891     2.641288
 C     1.761711    -3.474360     2.110452
 H     2.002146    -4.531496     1.983995
 C     0.889618    -1.702173     3.514340
 H     0.448979    -1.393770     4.463763
 C     1.209104    -3.035787     3.307655
 F     0.959948    -3.923290     4.273495
 C     3.679303    -0.510302    -2.198153
 H     2.837202    -0.311552    -2.863409
 C     4.536312    -0.769668     0.034711
 H     4.388234    -0.782189     1.117046
 C     4.947477    -0.781674    -2.710915
 H     5.098056    -0.787152    -3.793958
 C     5.795506    -1.044178    -0.482230
 H     6.621693    -1.259191     0.201728
 C     6.026146    -1.053001    -1.866246
 C     7.392208    -1.352277    -2.409623
 H     7.730224    -2.355731    -2.105207
 H     7.408366    -1.309242    -3.507426
 H     8.136250    -0.633450    -2.031095
 C     2.819670     1.743541     1.756813
 H     3.219345     0.874995     2.284030
 C     1.623656     2.725843    -0.079398
 H     1.054976     2.610245    -1.004263
 C     3.029317     3.011183     2.293267
 H     3.584267     3.111439     3.230258
 C     1.853741     3.989776     0.450489
 H     1.466014     4.867469    -0.073773
 C     2.540880     4.157742     1.657393
 C     2.712653     5.523888     2.251707
 H     3.198739     6.210660     1.541233
 H     1.730854     5.957339     2.500852
 H     3.318125     5.496587     3.168295
