  84
scf done:    -4284.681183
 C    -0.784734    -0.095104    -3.705999
 H    -1.345978    -0.962371    -4.069663
 H    -1.306265     0.852442    -3.870804
 C     0.651681    -0.133853    -3.769450
 H     1.136742    -1.028181    -4.175491
 H     1.195482     0.791039    -3.985639
 H     0.056696     1.341040    -1.819059
Ir     0.002080    -0.289122    -1.718249
 C    -1.535560     1.836433     0.600615
 C    -3.398470     0.451235    -1.095262
 C    -2.262134    -0.910659     1.074263
 C     1.564836    -1.304693     1.277892
 C     3.425319    -0.799629    -0.828640
 C     2.268371     1.387474     0.549596
 P     1.794751    -0.229736    -0.190638
 P    -1.766512     0.242375    -0.271652
 C    -0.025366    -2.200971    -1.810055
 O    -0.010390    -3.344471    -1.934335
 C    -1.184539     1.910659     1.951998
 H    -1.142365     1.001200     2.553343
 C    -1.591768     3.026571    -0.136645
 H    -1.847891     2.994999    -1.199033
 C    -0.887200     3.135880     2.543593
 H    -0.603074     3.164784     3.599204
 C    -1.315619     4.248680     0.466298
 H    -1.375943     5.164686    -0.128222
 C    -0.944593     4.327912     1.814953
 C    -0.579399     5.636888     2.448200
 H    -0.969354     6.488168     1.872512
 H    -0.966608     5.709545     3.475329
 H     0.516550     5.747667     2.506797
 C    -4.340854     1.411085    -0.709296
 H    -4.101853     2.132130     0.075682
 C    -3.734234    -0.455204    -2.107037
 H    -2.997273    -1.197975    -2.420402
 C    -5.589139     1.471287    -1.323406
 H    -6.322058     2.224126    -1.028813
 C    -4.981312    -0.414059    -2.720603
 H    -5.242156    -1.121806    -3.508952
 C    -5.903039     0.555245    -2.325809
Cl    -7.452997     0.625535    -3.093110
 C    -3.226211    -0.551915     2.027760
 H    -3.689334     0.436999     1.995501
 C    -1.713520    -2.191470     1.125800
 H    -0.963880    -2.487080     0.393671
 C    -3.601382    -1.437517     3.030817
 H    -4.340594    -1.154808     3.781937
 C    -2.093964    -3.098579     2.110836
 H    -1.656976    -4.096944     2.144249
 C    -3.023774    -2.708154     3.067999
Cl    -3.466908    -3.810473     4.330709
 C     1.715638    -2.691080     1.145350
 H     2.063870    -3.116464     0.200444
 C     1.110274    -0.802730     2.502749
 H     0.987013     0.273237     2.634911
 C     1.425162    -3.541610     2.208630
 H     1.556320    -4.619796     2.081083
 C     0.814921    -1.659479     3.558224
 H     0.454730    -1.240801     4.502178
 C     0.962777    -3.045276     3.433374
 C     0.598665    -3.961107     4.563456
 H     1.002488    -3.598307     5.520719
 H    -0.496594    -4.023055     4.678260
 H     0.975483    -4.979941     4.396824
 C     3.703021    -0.620958    -2.186805
 H     2.922221    -0.215733    -2.833036
 C     4.417394    -1.342309    -0.001717
 H     4.219637    -1.508690     1.059569
 C     4.943705    -0.965595    -2.715457
 H     5.159089    -0.826384    -3.775983
 C     5.658866    -1.698645    -0.517962
 H     6.430080    -2.128639     0.123121
 C     5.915966    -1.504485    -1.875299
Cl     7.458854    -1.947465    -2.522474
 C     3.152226     1.459879     1.636415
 H     3.559943     0.548108     2.077615
 C     1.782767     2.575017     0.001670
 H     1.098717     2.522376    -0.847264
 C     3.512365     2.685227     2.184260
 H     4.189102     2.740757     3.038286
 C     2.144225     3.810959     0.530640
 H     1.754218     4.734503     0.101368
 C     2.996640     3.856727     1.628214
Cl     3.419941     5.388597     2.322466
