  80
scf done:    -1994.660299
 C    -0.922527    -1.862337    -2.743816
 H    -1.012412    -2.942888    -2.584125
 H    -1.842351    -1.418523    -3.140253
 C     0.345444    -1.324848    -3.176992
 H     1.184302    -2.012226    -3.335296
 H     0.344750    -0.488451    -3.882093
 H    -0.754740     0.520558    -1.826774
Ir    -0.020150    -0.765657    -1.134023
 C    -2.493582     1.046550     0.630843
 C    -3.063323    -1.814439     0.231487
 C    -1.101575    -0.878993     2.318046
 C     2.577564     0.217554     1.005539
 C     2.942385     0.939759    -1.789247
 C     1.049099     2.548834    -0.085958
 P     1.607581     0.808558    -0.466115
 P    -1.663123    -0.607515     0.550852
 C     0.876527    -2.345661    -0.545220
 O     1.419844    -3.333433    -0.310386
 C    -2.235754     1.904579     1.711629
 H    -1.636004     1.559549     2.552936
 C    -3.290746     1.537589    -0.434203
 C    -3.635696     0.733192    -1.652872
 H    -4.467211     0.038292    -1.455001
 H    -2.771644     0.146702    -1.996246
 H    -3.950700     1.394496    -2.471643
 C    -2.725179     3.206656     1.762158
 H    -2.494468     3.839001     2.622708
 C    -3.779406     2.848129    -0.358947
 H    -4.387603     3.220377    -1.187860
 C    -3.506605     3.685450     0.717076
 H    -3.900614     4.704213     0.735175
 H    -3.190191    -1.686072    -0.853652
 C    -2.608342    -3.254190     0.440878
 H    -3.350664    -3.944682     0.009949
 H    -1.644696    -3.447494    -0.052229
 H    -2.511170    -3.505599     1.507601
 C    -4.400321    -1.530007     0.907130
 H    -4.685543    -0.469711     0.845418
 H    -5.192942    -2.120873     0.419191
 H    -4.395625    -1.810463     1.968730
 H    -0.547420     0.050659     2.516862
 C    -2.215323    -1.009217     3.352461
 H    -1.796095    -0.907779     4.366834
 H    -3.001539    -0.250230     3.235347
 H    -2.690088    -1.999771     3.299585
 C    -0.071165    -1.993603     2.465175
 H     0.831859    -1.785722     1.879914
 H     0.233780    -2.063458     3.521506
 H    -0.458007    -2.976986     2.165431
 C     3.399486    -0.880678     0.687580
 H     3.449603    -1.224839    -0.347150
 C     2.492201     0.608417     2.363975
 C     1.645603     1.727098     2.909321
 H     0.591236     1.639755     2.616224
 H     1.989946     2.716609     2.578767
 H     1.679477     1.718645     4.006990
 C     4.131730    -1.574577     1.640278
 H     4.746840    -2.425135     1.338961
 C     3.243953    -0.108129     3.310597
 H     3.173003     0.196167     4.358416
 C     4.056740    -1.181412     2.972972
 H     4.617483    -1.711289     3.746227
 H     3.053091    -0.122089    -2.065548
 C     2.399789     1.652489    -3.024104
 H     3.046824     1.442495    -3.890509
 H     1.382248     1.318603    -3.269382
 H     2.385760     2.743946    -2.885830
 C     4.311164     1.480141    -1.389624
 H     4.705249     1.005842    -0.480289
 H     5.029359     1.287721    -2.203660
 H     4.294015     2.565536    -1.224606
 H     0.500801     2.402032     0.854132
 C     2.184126     3.541182     0.148716
 H     1.798696     4.439629     0.658117
 H     3.002003     3.127748     0.756231
 H     2.616651     3.875410    -0.805686
 C     0.024312     3.109394    -1.066630
 H    -0.815393     2.418322    -1.204630
 H    -0.375514     4.053523    -0.663565
 H     0.458088     3.322288    -2.052913
