 116
scf done:    -3362.266516
 C    -0.756276    -2.571691    -2.384679
 H    -1.457839    -3.345333    -2.051689
 H    -1.130042    -1.994088    -3.235721
 C     0.661112    -2.793719    -2.248004
 H     1.012036    -3.739020    -1.818223
 H     1.337672    -2.381574    -3.000455
 H     0.285499    -0.318708    -2.069052
Ir     0.005717    -1.331444    -0.819185
 C    -1.913414     1.712380    -0.893712
 C    -3.351804    -0.861477    -0.856720
 C    -2.179505     0.304060     1.558112
 C     1.561120     0.687826     1.731785
 C     3.513878    -0.998673     0.462824
 C     2.383958     1.107332    -1.077315
 P     1.867445    -0.194293     0.144973
 P    -1.843859    -0.018321    -0.228448
 C    -0.342984    -2.719440     0.444904
 O    -0.556878    -3.674190     1.054538
 C    -0.954309     2.128375    -1.819259
 H    -0.191967     1.415399    -2.139072
 C    -2.893203     2.632449    -0.498606
 H    -3.676712     2.333039     0.196363
 C    -0.973833     3.418900    -2.341295
 H    -0.208091     3.707358    -3.067233
 C    -2.902423     3.924410    -1.017301
 H    -3.682639     4.621486    -0.696548
 C    -1.944538     4.345407    -1.947420
 C    -1.938512     5.750023    -2.476911
 H    -2.953985     6.170411    -2.522842
 H    -1.342212     6.415939    -1.829211
 H    -1.499470     5.799580    -3.484207
 C    -3.870686    -1.956453    -0.141948
 O    -3.258314    -2.221963     1.024245
 C    -3.593029    -3.352723     1.772491
 H    -2.911730    -3.352172     2.631676
 H    -4.637372    -3.313459     2.131784
 H    -3.444447    -4.280925     1.195339
 C    -3.895703    -0.585337    -2.122650
 O    -3.289958     0.383684    -2.829531
 C    -3.798598     0.784858    -4.065544
 H    -3.157889     1.608851    -4.405610
 H    -4.837566     1.149748    -3.982801
 H    -3.763205    -0.030356    -4.809768
 C    -4.988039    -1.315169    -2.613093
 H    -5.415262    -1.083748    -3.588132
 C    -4.950731    -2.701268    -0.628204
 H    -5.347983    -3.540838    -0.058422
 C    -5.506812    -2.360033    -1.857228
 H    -6.352180    -2.934451    -2.243655
 C    -3.362212     0.664880     2.097467
 O    -4.474260     0.760985     1.314894
 C    -5.642659     0.115170     1.751430
 H    -6.307577     0.046413     0.880492
 H    -5.426663    -0.904813     2.107952
 H    -6.160546     0.674903     2.550464
 C    -0.969413     0.178062     2.456299
 O    -0.782885    -1.193609     2.649565
 C     0.378931    -1.657988     3.282318
 H     0.126281    -2.621772     3.748353
 H     0.748464    -0.976392     4.067121
 H     1.194000    -1.825382     2.561173
 C    -1.066010     0.991308     3.767197
 H    -0.510945     0.454549     4.552466
 C    -3.495878     1.113007     3.486459
 H    -4.498657     1.346924     3.850827
 C    -2.423672     1.316596     4.266413
 H    -2.544780     1.700987     5.284143
 C     2.512494     0.974451     2.641079
 H     3.539572     0.645697     2.481626
 C     0.156134     1.148696     1.944221
 H    -0.175739     1.620200     1.009142
 C     2.247843     1.803983     3.809690
 H     3.083604     2.003602     4.487757
 C    -0.111831     2.071959     3.167771
 H    -0.666288     2.985305     2.895194
 C     1.055520     2.388811     4.047492
 C     0.802426     3.303046     5.200207
 H     0.449895     4.288317     4.847939
 H     0.005354     2.909673     5.855612
 H     1.703189     3.455241     5.811602
 C     4.716442    -0.263325     0.376331
 O     4.606875     1.078613     0.372784
 C     5.651720     1.872623    -0.111103
 H     5.245032     2.887286    -0.212864
 H     6.510287     1.896512     0.582984
 H     5.995059     1.528854    -1.101584
 C     3.625324    -2.395968     0.621956
 O     2.492131    -3.081138     0.840302
 C     2.528628    -4.481061     0.890106
 H     1.493988    -4.809428     1.036642
 H     3.145914    -4.842369     1.731108
 H     2.915715    -4.908309    -0.050713
 C     4.873603    -3.034557     0.567663
 H     4.946753    -4.116028     0.666918
 C     5.964457    -0.894564     0.316903
 H     6.878266    -0.307459     0.231480
 C     6.026215    -2.279262     0.398228
 H     6.996221    -2.780618     0.354762
 C     3.019547     0.655290    -2.251481
 O     3.232805    -0.669299    -2.324986
 C     3.915266    -1.216683    -3.412465
 H     3.984291    -2.294656    -3.220295
 H     3.374231    -1.056114    -4.361309
 H     4.935411    -0.803074    -3.504160
 C     2.158355     2.487219    -0.948350
 O     1.539731     2.906110     0.169895
 C     1.271791     4.264170     0.362224
 H     0.787260     4.344961     1.343453
 H     0.586073     4.655546    -0.408319
 H     2.197357     4.866275     0.373611
 C     2.560418     3.383205    -1.951202
 H     2.372269     4.450287    -1.842801
 C     3.420281     1.541669    -3.257805
 H     3.906145     1.174239    -4.160744
 C     3.184998     2.902394    -3.094377
 H     3.491667     3.601358    -3.876255
