  78
scf done:    -5125.050036
 C    -0.799101     0.232755    -3.800166
 H    -1.359953    -0.598661    -4.239781
 H    -1.324765     1.189608    -3.870870
 C     0.636108     0.205590    -3.874349
 H     1.121472    -0.645159    -4.364687
 H     1.176203     1.148613    -4.003491
 H     0.051894     1.486995    -1.787976
Ir    -0.001360    -0.145220    -1.842385
 C    -1.543672     1.750450     0.638779
 C    -3.408923     0.508406    -1.160044
 C    -2.267256    -1.026966     0.891341
 C     1.583929    -1.443881     1.008826
 C     3.436478    -0.694531    -1.023383
 C     2.255244     1.323763     0.582475
 P     1.802566    -0.207416    -0.329863
 P    -1.777561     0.230152    -0.358123
 C    -0.023302    -2.041800    -2.107507
 O    -0.005029    -3.170188    -2.328675
 C    -1.163637     1.713379     1.983343
 H    -1.120845     0.758949     2.510297
 C    -1.605020     2.994092    -0.006243
 H    -1.883688     3.045262    -1.061890
 C    -0.827936     2.879793     2.667554
 H    -0.508718     2.844755     3.710243
 C    -1.296591     4.167159     0.670562
 H    -1.345489     5.133539     0.165985
 C    -0.891177     4.101690     2.004696
Cl    -0.427511     5.549578     2.827216
 C    -3.742455    -0.305728    -2.248122
 H    -3.005324    -1.018101    -2.624771
 C    -4.353956     1.427721    -0.690506
 H    -4.119571     2.075401     0.157289
 C    -4.989007    -0.212200    -2.856806
 H    -5.248069    -0.848103    -3.704685
 C    -5.601509     1.540529    -1.298310
 H    -6.336163     2.262479    -0.938140
 C    -5.912773     0.717069    -2.379002
Cl    -7.461063     0.853150    -3.138795
 C    -3.226292    -0.741092     1.874446
 H    -3.682152     0.250455     1.926164
 C    -1.729187    -2.312914     0.834636
 H    -0.982654    -2.552827     0.078435
 C    -3.608833    -1.704656     2.799150
 H    -4.346336    -1.479946     3.571258
 C    -2.116813    -3.295667     1.741877
 H    -1.686045    -4.296461     1.700649
 C    -3.045379    -2.981120     2.729255
Cl    -3.506432    -4.180429     3.885555
 C     1.755704    -2.803658     0.712615
 H     2.127020    -3.108052    -0.269173
 C     1.102916    -1.092312     2.274654
 H     0.964915    -0.040537     2.529088
 C     1.449569    -3.784616     1.649495
 H     1.579571    -4.841960     1.413001
 C     0.788678    -2.064069     3.220352
 H     0.398172    -1.786050     4.200475
 C     0.956797    -3.408366     2.899303
Cl     0.510615    -4.624897     4.044445
 C     3.696889    -0.416666    -2.367889
 H     2.902497     0.017655    -2.977274
 C     4.447119    -1.273234    -0.244298
 H     4.265122    -1.515628     0.805148
 C     4.938690    -0.699757    -2.929839
 H     5.140840    -0.483014    -3.979884
 C     5.689523    -1.568775    -0.794496
 H     6.475221    -2.026419    -0.191317
 C     5.929340    -1.276295    -2.137706
Cl     7.473131    -1.642920    -2.826779
 C     3.106577     1.284983     1.696861
 H     3.494663     0.332418     2.063112
 C     1.797551     2.564147     0.134275
 H     1.138563     2.599849    -0.735428
 C     3.462121     2.449710     2.365892
 H     4.115120     2.416990     3.239380
 C     2.155684     3.740787     0.786725
 H     1.785889     4.706803     0.441191
 C     2.978194     3.676471     1.907475
Cl     3.405186     5.127422     2.744530
