 102
scf done:    -3601.450480
 C     0.627879    -3.326078    -2.014269
 H     0.987003    -3.265713    -3.047136
 H     1.371464    -3.727238    -1.318191
 C    -0.767509    -3.586581    -1.779979
 H    -1.434505    -3.713914    -2.639142
 H    -1.055011    -4.201344    -0.920225
 H     0.109506    -2.131301     0.186368
Ir    -0.309249    -1.535776    -1.277846
 C     2.867745    -1.200073    -0.179932
 C     2.110511     0.873053    -2.124801
 C     1.121466     0.981196     0.705234
 C    -2.535184     1.018115    -0.042834
 C    -3.754863    -1.350655    -1.086118
 C    -2.505321    -1.454142     1.527098
 P    -2.214297    -0.789066    -0.181886
 P     1.468393    -0.146203    -0.708263
 C    -0.714616    -0.830136    -3.007805
 O    -0.933882    -0.375303    -4.043906
 C     3.072274    -1.492233     1.173776
 H     2.469922    -1.004854     1.942554
 C     3.641458    -1.875386    -1.131200
 H     3.469337    -1.710423    -2.197205
 C     4.039712    -2.409451     1.571300
 H     4.196663    -2.629249     2.628563
 C     4.619243    -2.788014    -0.748311
 H     5.222771    -3.307432    -1.494228
 C     4.816144    -3.048998     0.606927
Cl     6.027996    -4.185903     1.094836
 H     2.408737     0.122875    -2.873605
 H     1.209460     1.347005    -2.539496
 C     3.203929     1.872103    -1.890758
 C     4.540485     1.457762    -1.904473
 H     4.770933     0.408916    -2.103151
 C     2.907310     3.229756    -1.651010
 C     1.495314     3.738043    -1.671604
 H     0.846519     3.178047    -0.984366
 H     1.050972     3.655479    -2.678214
 H     1.453957     4.794140    -1.373047
 C     5.578317     2.350995    -1.656153
 H     6.613317     2.001392    -1.667122
 C     3.960466     4.113335    -1.400775
 H     3.730172     5.162564    -1.198559
 C     5.285585     3.686406    -1.395020
 H     6.087632     4.399241    -1.189792
 H     0.193849     1.478171     0.387836
 H     0.772211     0.291032     1.493160
 C     2.087167     1.990082     1.275814
 C     3.470199     1.784860     1.285435
 H     3.884231     0.886745     0.830631
 C     1.571798     3.172392     1.853703
 C     0.097518     3.457637     1.893961
 H    -0.467051     2.645847     2.374841
 H    -0.328866     3.577384     0.885577
 H    -0.107970     4.385993     2.444075
 C     4.342607     2.719006     1.834895
 H     5.418159     2.531938     1.809283
 C     2.463439     4.102681     2.398983
 H     2.060377     5.018454     2.840718
 C     3.838594     3.888447     2.393949
 H     4.511166     4.634577     2.823813
 C    -1.980394     1.848240    -1.024366
 H    -1.329591     1.407093    -1.783501
 C    -3.363239     1.599947     0.925143
 H    -3.850373     0.984050     1.682805
 C    -2.232236     3.216534    -1.045024
 H    -1.794069     3.856291    -1.812712
 C    -3.605318     2.970728     0.936014
 H    -4.242232     3.419531     1.699727
 C    -3.036679     3.773271    -0.051500
Cl    -3.311278     5.480538    -0.031383
 H    -3.617541    -0.932001    -2.095251
 H    -3.629765    -2.438543    -1.185354
 C    -5.085075    -0.958616    -0.520228
 C    -5.585471     0.322337    -0.792819
 H    -5.009698     0.985378    -1.443152
 C    -5.850235    -1.834216     0.281418
 C    -5.434838    -3.257267     0.529633
 H    -4.515941    -3.330703     1.129543
 H    -5.244554    -3.792963    -0.413945
 H    -6.221202    -3.803088     1.068281
 C    -6.789732     0.765969    -0.256107
 H    -7.151288     1.771208    -0.484502
 C    -7.057431    -1.369724     0.817224
 H    -7.651521    -2.047120     1.436903
 C    -7.525136    -0.082164     0.567210
 H    -8.472251     0.248612     0.999900
 H    -3.459816    -1.054652     1.905249
 H    -2.661114    -2.525900     1.350776
 C    -1.390801    -1.249720     2.515080
 C    -1.216736    -0.002326     3.127476
 H    -1.905336     0.808669     2.884885
 C    -0.514883    -2.304534     2.854740
 C    -0.692946    -3.692568     2.311320
 H    -0.638159    -3.700852     1.212422
 H    -1.667331    -4.117238     2.604436
 H     0.089015    -4.363213     2.691830
 C    -0.176834     0.236380     4.022070
 H    -0.057510     1.224193     4.472541
 C     0.529384    -2.045180     3.750573
 H     1.213678    -2.859515     4.003833
 C     0.713231    -0.789910     4.325093
 H     1.541457    -0.618001     5.016380
