  98
scf done:    -2428.768510
 C    -0.579134    -3.616488    -1.033424
 H    -1.350029    -4.168227    -0.484028
 H    -0.774706    -3.566639    -2.109250
 C     0.786294    -3.700627    -0.574277
 H     1.011196    -4.310416     0.307414
 H     1.588790    -3.708861    -1.318304
 H     0.549937    -1.416155    -1.685346
Ir     0.000841    -1.738292    -0.168662
 C    -1.027750     1.233284    -1.717013
 C    -3.103900    -0.741400    -1.566260
 C    -2.344231     0.723481     0.812643
 C     1.118141     0.995693     1.731211
 C     3.153077    -0.984404     1.374127
 C     2.415084     0.727355    -0.841333
 P     1.685800    -0.264111     0.519973
 P    -1.627446    -0.131876    -0.647889
 C    -0.654414    -2.197962     1.562759
 O    -1.070837    -2.469650     2.602707
 C    -0.908536     2.556600    -1.276497
 H    -1.280152     2.848118    -0.294004
 C    -0.532781     0.909668    -2.989998
 H    -0.586782    -0.122988    -3.342729
 C    -0.278556     3.523470    -2.060696
 H    -0.164832     4.553089    -1.716131
 C     0.082856     1.864954    -3.790000
 H     0.483365     1.616058    -4.774338
 C     0.219446     3.161412    -3.304171
 F     0.854043     4.069590    -4.042784
 H    -2.721645    -1.162562    -2.510924
 H    -3.743786     0.117767    -1.823177
 C    -3.854331    -1.810288    -0.785309
 H    -3.121961    -2.554875    -0.431996
 H    -4.304059    -1.366352     0.121998
 C    -4.952265    -2.525937    -1.574863
 H    -4.477987    -2.958190    -2.476283
 C    -5.526498    -3.674205    -0.753391
 H    -4.740564    -4.383808    -0.451770
 H    -6.288141    -4.232834    -1.319190
 H    -6.005215    -3.297027     0.165931
 C    -6.053909    -1.575888    -2.031460
 H    -6.838988    -2.113821    -2.585172
 H    -5.671310    -0.782200    -2.690751
 H    -6.533153    -1.089322    -1.164714
 H    -1.501143     1.267800     1.267528
 H    -2.574514    -0.081808     1.527186
 C    -3.543971     1.641459     0.605897
 H    -3.464832     2.168631    -0.359821
 H    -4.467398     1.039258     0.538776
 C    -3.701999     2.685950     1.715613
 H    -2.774999     3.292440     1.723821
 C    -4.869112     3.617846     1.415769
 H    -4.754095     4.106644     0.435496
 H    -4.958893     4.406951     2.178206
 H    -5.820900     3.061052     1.400283
 C    -3.839588     2.052329     3.095121
 H    -3.925620     2.823566     3.875616
 H    -2.970725     1.426990     3.348360
 H    -4.739806     1.416848     3.147650
 C     0.983409     2.352963     1.413993
 H     1.336962     2.733609     0.455696
 C     0.647341     0.558092     2.979390
 H     0.722736    -0.496589     3.253754
 C     0.361492     3.241365     2.291374
 H     0.238682     4.297282     2.042641
 C     0.033520     1.432561     3.868986
 H    -0.349833     1.092073     4.832478
 C    -0.118271     2.766060     3.503606
 F    -0.748272     3.600145     4.328680
 H     2.769939    -1.483275     2.280055
 H     3.806930    -0.162497     1.706940
 C     3.884066    -1.989113     0.496132
 H     3.139656    -2.690908     0.087047
 H     4.327347    -1.471938    -0.374828
 C     4.984594    -2.779137     1.207165
 H     4.518421    -3.282349     2.075524
 C     5.535339    -3.858710     0.282691
 H     4.737090    -4.530123    -0.069694
 H     6.296690    -4.472682     0.788394
 H     6.008176    -3.408549    -0.606378
 C     6.102400    -1.882188     1.727258
 H     6.888588    -2.472571     2.222951
 H     5.737079    -1.143030     2.456126
 H     6.575649    -1.329014     0.897983
 H     1.576715     1.317318    -1.244677
 H     2.640092    -0.007679    -1.628251
 C     3.615929     1.612367    -0.527004
 H     3.536874     2.023779     0.493529
 H     4.538252     1.004667    -0.529881
 C     3.778232     2.780351    -1.505169
 H     2.851504     3.384326    -1.444463
 C     4.944709     3.669352    -1.093591
 H     4.825896     4.039807    -0.063202
 H     5.038194     4.542363    -1.757818
 H     5.896065     3.113486    -1.139614
 C     3.919986     2.314182    -2.949371
 H     4.002908     3.172191    -3.633809
 H     3.053842     1.719036    -3.274415
 H     4.823214     1.693346    -3.074884
