  84
scf done:    -2446.790227
 C    -0.635957    -2.904314    -1.670195
 H    -1.123246    -3.709352    -1.110890
 H    -1.202361    -2.596128    -2.554482
 C     0.794938    -2.842085    -1.688433
 H     1.365105    -3.600586    -1.143505
 H     1.312313    -2.469980    -2.577384
 H     0.011535    -0.454356    -1.884658
Ir     0.032323    -1.246856    -0.456219
 C    -2.170827     1.524502    -0.936275
 C    -3.501235    -0.946625    -0.289532
 C    -2.232632     0.465581     1.763256
 C     2.422263     0.509688     1.646837
 C     3.433280    -0.932368    -0.649397
 C     2.189743     1.630160    -0.960184
 P     1.966994     0.032380    -0.083354
 P    -1.928722    -0.035593     0.013596
 C     0.134678    -2.286876     1.147640
 O     0.239945    -2.954762     2.078501
 C    -2.096394     2.755956    -0.271066
 H    -1.998731     2.773553     0.814751
 C    -2.318407     1.506730    -2.343747
 C    -2.461448     0.243572    -3.141433
 H    -1.937365    -0.599256    -2.673275
 H    -2.058576     0.378530    -4.155446
 H    -3.521785    -0.040697    -3.236806
 C    -2.140426     3.961168    -0.965295
 H    -2.069312     4.904854    -0.419952
 C    -2.365290     2.732872    -3.019136
 H    -2.477240     2.722455    -4.107116
 C    -2.273102     3.949870    -2.350102
 H    -2.307254     4.886731    -2.911513
 C    -3.551871    -2.304406     0.042135
 C    -4.657991    -0.319514    -0.766862
 C    -5.883026    -2.394340    -0.583335
 C    -5.840807    -1.041816    -0.917676
 C    -4.736437    -3.022789    -0.098395
 H    -2.647804    -2.795841     0.407838
 H    -4.761919    -4.082446     0.166704
 H    -6.810194    -2.960030    -0.702715
 H    -6.735272    -0.542593    -1.298498
 H    -4.633049     0.741532    -1.029560
 C    -1.234186     0.269956     2.718704
 C    -3.461714     1.007496     2.167614
 C    -2.665015     1.165113     4.443440
 C    -3.673433     1.359466     3.496687
 C    -1.446359     0.617810     4.052558
 H    -0.273669    -0.145310     2.410857
 H    -0.647494     0.459876     4.780827
 H    -2.835788     1.437263     5.487968
 H    -4.634867     1.782053     3.798464
 H    -4.261673     1.152350     1.438252
 C     3.366115    -0.237784     2.363993
 H     3.902751    -1.048534     1.871154
 C     1.761317     1.581402     2.292110
 C     0.771831     2.466412     1.597902
 H     0.195992     1.918410     0.841974
 H     1.276025     3.291350     1.070048
 H     0.066825     2.898699     2.321226
 C     3.649395     0.037495     3.698662
 H     4.389062    -0.565393     4.230395
 C     2.061498     1.838217     3.635212
 H     1.542665     2.661605     4.134014
 C     2.989243     1.079712     4.341966
 H     3.197511     1.305952     5.390461
 C     3.597816    -2.241539    -0.170708
 C     4.344589    -0.446380    -1.592175
 C     5.575532    -2.527824    -1.525793
 C     5.404309    -1.242269    -2.030206
 C     4.666785    -3.025626    -0.590884
 H     2.868789    -2.655543     0.529506
 H     4.781422    -4.038610    -0.197704
 H     6.407934    -3.147604    -1.867406
 H     6.100558    -0.847498    -2.774184
 H     4.226109     0.558106    -2.000645
 C     1.281417     2.045694    -1.934453
 C     3.262327     2.468357    -0.621270
 C     2.503794     4.108891    -2.223505
 C     3.419861     3.698587    -1.252631
 C     1.435832     3.281542    -2.561583
 H     0.436051     1.400956    -2.181306
 H     0.704587     3.597772    -3.308601
 H     2.622493     5.079585    -2.711312
 H     4.257838     4.344836    -0.980165
 H     3.969451     2.159298     0.153241
