  88
scf done:    -4585.462476
 C    -0.284653     1.433570    -3.908395
 H    -0.605383     0.711610    -4.665670
 H    -1.041690     2.188547    -3.678459
 C     1.105814     1.784697    -3.818293
 H     1.819994     1.324960    -4.508411
 H     1.378809     2.802780    -3.525628
 H     0.136823     1.956128    -1.443045
Ir     0.562048     0.540854    -2.136761
 C    -1.501986     0.654113     0.706084
 O    -2.555070    -0.439045    -1.543030
 O    -0.790917    -1.809806    -0.234607
 C     3.895128    -0.198484    -1.099884
 O     2.835265     1.933733    -0.026623
 O     1.888599    -0.371487     0.701100
 P     2.284954     0.498640    -0.664206
 P    -1.079048    -0.265324    -0.799838
 C     0.985141    -1.114124    -3.047478
 O     1.208322    -2.104058    -3.577709
 C    -1.126945     0.213119     1.975098
 H    -0.546951    -0.704060     2.079064
 C    -2.175381     1.876842     0.580077
 H    -2.440676     2.257347    -0.409290
 C    -1.466238     0.957813     3.103153
 H    -1.165434     0.600565     4.091948
 C    -2.511112     2.610403     1.708130
 H    -3.031044     3.564780     1.594202
 C    -2.173919     2.158061     2.992047
 C    -2.546099     2.965695     4.199119
 H    -2.094137     2.560253     5.115121
 H    -2.223365     4.012261     4.083348
 H    -3.638814     2.980174     4.340943
 C    -3.817589    -0.165361    -1.091982
 C    -4.319198    -0.646303     0.117850
 H    -3.698889    -1.261391     0.768987
 C    -4.622193     0.616874    -1.921597
 H    -4.206121     0.978613    -2.863734
 C    -5.620836    -0.334813     0.498866
 H    -6.020175    -0.704623     1.444280
 C    -5.925107     0.924890    -1.545846
 H    -6.560976     1.535674    -2.188533
 C    -6.418466     0.450256    -0.330995
Cl    -8.037791     0.838805     0.149246
 C    -1.729540    -2.761739     0.047363
 C    -2.470394    -3.348105    -0.981661
 H    -2.308483    -3.021378    -2.009171
 C    -1.915916    -3.179783     1.365953
 H    -1.324696    -2.728907     2.163332
 C    -3.417730    -4.322419    -0.688787
 H    -4.010158    -4.776227    -1.484574
 C    -2.856997    -4.162655     1.661458
 H    -3.010947    -4.493568     2.689656
 C    -3.612601    -4.722692     0.633142
Cl    -4.797521    -5.930981     0.999350
 C     5.025802     0.591680    -1.313633
 H     4.966731     1.671619    -1.166724
 C     3.979023    -1.585095    -1.283823
 H     3.100810    -2.215288    -1.118331
 C     6.224519    -0.002137    -1.702227
 H     7.105325     0.624906    -1.864826
 C     5.180898    -2.165771    -1.664661
 H     5.235498    -3.249935    -1.795085
 C     6.325251    -1.385104    -1.883077
 C     7.613533    -2.025442    -2.307018
 H     7.899858    -2.836177    -1.619242
 H     7.520190    -2.471448    -3.310365
 H     8.436156    -1.297855    -2.337942
 C     1.970518     2.868573     0.483371
 C     1.574357     3.947396    -0.304546
 H     1.938371     4.018914    -1.330229
 C     1.515623     2.743721     1.794795
 H     1.829473     1.891143     2.398461
 C     0.710235     4.904952     0.218249
 H     0.379779     5.748219    -0.389888
 C     0.663311     3.705850     2.324794
 H     0.306228     3.621964     3.350947
 C     0.256377     4.773714     1.529234
Cl    -0.852816     5.944252     2.173614
 C     2.709889    -0.854384     1.676748
 C     3.840397    -0.175550     2.136384
 H     4.122053     0.779589     1.692804
 C     2.349888    -2.081769     2.237634
 H     1.471060    -2.596388     1.843543
 C     4.607388    -0.730329     3.157927
 H     5.495295    -0.212141     3.523423
 C     3.111486    -2.631629     3.262202
 H     2.840098    -3.590949     3.705714
 C     4.240904    -1.951784     3.718945
Cl     5.197185    -2.635041     4.992688
