  88
scf done:    -2747.582557
 C     0.781206    -3.137923    -2.419589
 H     1.113902    -2.979132    -3.450140
 H     1.542320    -3.593855    -1.779517
 C    -0.606660    -3.403507    -2.164740
 H    -1.308129    -3.443895    -3.003508
 H    -0.879034    -4.060174    -1.333670
 H     0.316056    -2.178059    -0.124659
Ir    -0.119822    -1.407271    -1.495933
 C     3.067886    -0.760279    -0.240824
 O     1.958095     1.231715    -1.723081
 O     0.974918     0.729512     0.648966
 C    -2.261408     1.164020    -0.168649
 O    -3.304370    -1.320533    -0.506446
 O    -1.684647    -0.786201     1.427435
 P    -1.828259    -0.601146    -0.217733
 P     1.487357    -0.016918    -0.733811
 C    -0.528936    -0.601814    -3.201439
 O    -0.731503    -0.131177    -4.227163
 C     3.110541    -1.543145     0.920957
 H     2.218253    -1.648713     1.544122
 C     4.204975    -0.666411    -1.044132
 H     4.168089    -0.087457    -1.969249
 C     4.285879    -2.186617     1.282227
 H     4.306992    -2.786838     2.196201
 C     5.379122    -1.319755    -0.672979
 H     6.264648    -1.236451    -1.309020
 C     5.443245    -2.084301     0.495614
 C     6.701807    -2.795805     0.895754
 H     6.564283    -3.888735     0.863534
 H     7.538689    -2.543270     0.230042
 H     6.995021    -2.538515     1.925533
 C     2.313319     2.492846    -1.310361
 C     3.640318     2.905848    -1.420603
 H     4.384254     2.219332    -1.826430
 C     1.340305     3.357446    -0.807666
 H     0.306417     3.017932    -0.735216
 C     3.996981     4.184809    -0.997572
 H     5.037833     4.506935    -1.079576
 C     1.710458     4.628109    -0.378373
 H     0.949414     5.294698     0.033988
 C     3.038129     5.045635    -0.465739
 H     3.324831     6.042281    -0.123468
 C     1.553376     1.469535     1.644092
 C     2.920152     1.720928     1.763363
 H     3.625542     1.323379     1.036229
 C     0.654706     1.997549     2.574493
 H    -0.408213     1.793543     2.435653
 C     3.374986     2.509613     2.819005
 H     4.445327     2.712519     2.901932
 C     1.124367     2.779174     3.624956
 H     0.414503     3.192497     4.345653
 C     2.488711     3.039918     3.753807
 H     2.858081     3.657544     4.575172
 C    -2.069205     1.931613    -1.319011
 H    -1.642619     1.476425    -2.214899
 C    -2.801031     1.773593     0.971415
 H    -2.964770     1.180322     1.872375
 C    -2.404732     3.283580    -1.330480
 H    -2.242813     3.868545    -2.239701
 C    -3.125253     3.124489     0.954100
 H    -3.544301     3.585983     1.852642
 C    -2.929383     3.905708    -0.193146
 C    -3.247551     5.371435    -0.186940
 H    -2.443985     5.943230     0.306749
 H    -3.354821     5.766545    -1.206794
 H    -4.176949     5.578772     0.363907
 C    -4.463223    -0.883316     0.087098
 C    -5.297804    -0.014783    -0.615938
 H    -5.001942     0.307127    -1.615858
 C    -4.802760    -1.312133     1.370404
 H    -4.137628    -1.992926     1.903861
 C    -6.477882     0.430937    -0.026877
 H    -7.130237     1.113185    -0.577043
 C    -5.986081    -0.858926     1.950881
 H    -6.253648    -1.194170     2.955850
 C    -6.824519     0.013839     1.258274
 H    -7.750166     0.366290     1.718690
 C    -1.116485    -1.867551     2.036779
 C    -1.468645    -3.174316     1.691699
 H    -2.194271    -3.344545     0.893923
 C    -0.176373    -1.625993     3.038502
 H     0.086828    -0.594702     3.279128
 C    -0.864201    -4.240916     2.353335
 H    -1.132965    -5.263091     2.076584
 C     0.416199    -2.701956     3.695872
 H     1.153729    -2.510815     4.479325
 C     0.079077    -4.011927     3.354399
 H     0.549650    -4.852950     3.868186
