  96
scf done:    -2603.925081
 C     0.994248    -1.177883    -3.095303
 H     1.472995    -0.496223    -3.805183
 H     1.650696    -1.988087    -2.762719
 C    -0.413073    -1.415494    -3.218173
 H    -0.958220    -0.892187    -4.011589
 H    -0.816052    -2.409313    -2.999398
 H     0.160996    -1.722151    -0.792063
Ir    -0.042915    -0.247812    -1.442027
 C     2.603040    -1.401596     0.366797
 C     3.284201     1.064887    -0.959239
 C     1.787343     1.190609     1.454481
 C    -2.519242     1.417800     0.473893
 C    -3.515165    -0.932185    -0.764183
 C    -1.680204    -1.227146     1.467153
 P    -1.948933    -0.243073    -0.070141
 P     1.872832     0.215001    -0.117226
 C    -0.422081     1.445738    -2.267046
 O    -0.706302     2.443516    -2.763858
 C     1.858297    -2.283102     1.165262
 H     0.872316    -1.991168     1.530074
 C     3.819709    -1.849254    -0.151572
 H     4.408684    -1.201053    -0.803592
 C     2.341346    -3.547210     1.471065
 H     1.736952    -4.205617     2.101744
 C     4.290583    -3.129285     0.144911
 H     5.243505    -3.457401    -0.279564
 C     3.570229    -3.997599     0.966924
 C     4.077681    -5.370280     1.297050
 H     5.018625    -5.589988     0.773638
 H     4.260585    -5.476728     2.378575
 H     3.345211    -6.143868     1.017183
 C     3.098345     1.416894    -2.300045
 H     2.150509     1.154561    -2.769997
 C     4.499789     1.404516    -0.315791
 C     4.809163     1.117569     1.126238
 H     4.417951     0.148763     1.458929
 H     4.367378     1.882831     1.783913
 H     5.896351     1.123561     1.288226
 C     4.075005     2.092975    -3.024127
 H     3.895652     2.357092    -4.068648
 C     5.472103     2.078001    -1.067525
 H     6.416117     2.338265    -0.580725
 C     5.272995     2.425359    -2.400585
 H     6.056625     2.954384    -2.948582
 C     1.821386     0.552337     2.700330
 H     1.939248    -0.529594     2.751031
 C     1.652723     2.599713     1.408199
 C     1.579322     3.378432     0.127765
 H     0.982168     2.857657    -0.632735
 H     2.578035     3.540295    -0.306101
 H     1.120256     4.361387     0.301764
 C     1.729909     1.269333     3.889226
 H     1.759869     0.738735     4.843776
 C     1.575964     3.300661     2.618544
 H     1.480016     4.389602     2.582085
 C     1.611014     2.655140     3.850819
 H     1.543966     3.234044     4.774956
 C    -3.801564     1.908223     0.206275
 H    -4.538032     1.276654    -0.293501
 C    -1.598997     2.278918     1.083827
 H    -0.581075     1.936077     1.266487
 C    -4.151257     3.209891     0.562181
 H    -5.159307     3.569718     0.337818
 C    -1.958682     3.567844     1.453638
 H    -1.216999     4.204791     1.944211
 C    -3.243891     4.062383     1.196722
 C    -3.614513     5.469387     1.561722
 H    -3.266026     5.726569     2.573544
 H    -3.152027     6.190175     0.867170
 H    -4.701968     5.624130     1.523861
 C    -3.569835    -1.043442    -2.156600
 H    -2.686096    -0.750414    -2.725151
 C    -4.644969    -1.290408     0.009948
 C    -4.715047    -1.170399     1.505929
 H    -4.249463    -0.245936     1.871914
 H    -4.195381    -2.003471     2.004229
 H    -5.762866    -1.181766     1.837432
 C    -4.702714    -1.525005    -2.806332
 H    -4.716895    -1.601909    -3.895836
 C    -5.769821    -1.781631    -0.665379
 H    -6.647516    -2.064212    -0.077328
 C    -5.806837    -1.907228    -2.051852
 H    -6.705068    -2.294612    -2.539104
 C    -1.420257    -0.576135     2.678262
 H    -1.457497     0.512247     2.727868
 C    -1.639182    -2.641475     1.416841
 C    -1.915829    -3.432645     0.172301
 H    -1.464958    -2.961632    -0.712471
 H    -2.997475    -3.514514    -0.018805
 H    -1.509717    -4.449255     0.267127
 C    -1.114972    -1.288344     3.834802
 H    -0.908165    -0.748974     4.761896
 C    -1.338841    -3.334801     2.596397
 H    -1.307340    -4.427441     2.561470
 C    -1.074613    -2.678411     3.795568
 H    -0.837018    -3.253460     4.693708
