  90
scf done:    -3292.970303
 C     1.295835     2.328022    -2.554879
 H     2.175001     2.891293    -2.226543
 H     1.495416     1.662735    -3.399486
 C    -0.007344     2.912971    -2.427757
 H    -0.101805     3.918022    -2.004909
 H    -0.780401     2.672611    -3.162551
 H    -0.308905     0.366435    -2.156010
Ir     0.211120     1.350811    -0.952220
 C     3.189085    -0.528686    -0.673003
 O     1.605604    -0.709065     1.372027
 O     0.854447    -1.875566    -0.833137
 C    -2.456890    -0.751055     0.089131
 O    -2.523749     1.631161     1.120401
 O    -3.000905     1.431547    -1.399604
 P    -1.925333     0.957478    -0.259241
 P     1.419744    -0.456813    -0.243280
 C     0.906839     2.552958     0.374670
 O     1.356089     3.270572     1.152068
 C     3.528693    -0.426006    -2.027984
 H     2.738247    -0.311591    -2.774165
 C     4.204885    -0.653620     0.278819
 H     3.941439    -0.734717     1.334458
 C     4.858003    -0.460295    -2.431622
 H     5.128403    -0.383696    -3.485848
 C     5.541382    -0.677235    -0.112705
 H     6.340210    -0.770302     0.624840
 C     5.858968    -0.583066    -1.466254
Cl     7.518002    -0.614014    -1.958975
 C     0.547008    -0.499155     2.293565
 H    -0.036932     0.385665     1.985837
 H    -0.134313    -1.365818     2.271719
 C     1.122434    -0.310029     3.678482
 H     0.274659    -0.212119     4.379633
 H     1.658783    -1.229612     3.972937
 C     2.044889     0.893335     3.808765
 H     1.502782     1.800885     3.496040
 H     2.876231     0.786441     3.093022
 C     2.590088     1.076684     5.214976
 H     1.776778     1.226408     5.943995
 H     3.163417     0.194175     5.542262
 H     3.257308     1.949282     5.279366
 C     1.552876    -3.115261    -0.772282
 H     1.058897    -3.754183    -1.521656
 H     2.597802    -2.970053    -1.094886
 C     1.505851    -3.774037     0.593471
 H     2.070533    -4.720790     0.525016
 H     2.044656    -3.141355     1.316972
 C     0.092007    -4.038975     1.085923
 H    -0.410452    -4.741589     0.398467
 H    -0.484185    -3.103680     1.015865
 C     0.023686    -4.576230     2.504223
 H     0.585886    -5.518287     2.609226
 H     0.449568    -3.858308     3.224579
 H    -1.017089    -4.775336     2.801619
 C    -2.322285    -1.699256    -0.932271
 H    -1.888559    -1.405851    -1.890619
 C    -2.978460    -1.145313     1.325287
 H    -3.093857    -0.403725     2.117407
 C    -2.715566    -3.016622    -0.731600
 H    -2.610164    -3.760111    -1.522933
 C    -3.352081    -2.469057     1.545797
 H    -3.746901    -2.787778     2.511819
 C    -3.217257    -3.394724     0.513587
Cl    -3.634786    -5.051990     0.794910
 C    -2.450696     3.035862     1.312556
 H    -1.515670     3.424288     0.870958
 H    -3.288228     3.516002     0.777248
 C    -2.516025     3.341228     2.792215
 H    -2.580238     4.436923     2.909897
 H    -3.457855     2.930388     3.196630
 C    -1.330480     2.800565     3.577771
 H    -0.403074     3.235651     3.169097
 H    -1.258500     1.715111     3.401092
 C    -1.414208     3.071409     5.070061
 H    -1.457973     4.151918     5.281607
 H    -2.313915     2.613264     5.511736
 H    -0.539205     2.666024     5.600961
 C    -4.402758     1.249936    -1.252314
 H    -4.609957     0.323905    -0.686733
 H    -4.817713     2.092175    -0.672565
 C    -5.030284     1.179500    -2.626286
 H    -6.125783     1.124373    -2.498931
 H    -4.824405     2.124291    -3.158566
 C    -4.537977     0.002489    -3.456387
 H    -4.743768    -0.935575    -2.910489
 H    -3.440834     0.070591    -3.539504
 C    -5.161040    -0.055982    -4.840934
 H    -6.257745    -0.150811    -4.786123
 H    -4.938931     0.857003    -5.416523
 H    -4.782665    -0.912212    -5.419557
