  98
scf done:    -3149.326354
 C    -0.559306    -3.750905    -1.116223
 H    -1.365776    -4.301050    -0.618872
 H    -0.693321    -3.683424    -2.200460
 C     0.776398    -3.855749    -0.581453
 H     0.944134    -4.478750     0.303680
 H     1.620505    -3.861587    -1.277823
 H     0.626158    -1.555205    -1.672977
Ir    -0.010939    -1.890222    -0.194281
 C    -0.917947     1.112639    -1.752142
 C    -3.006966    -0.854246    -1.780499
 C    -2.407940     0.566703     0.673050
 C     1.024837     0.816392     1.779463
 C     3.043862    -1.197618     1.561210
 C     2.489431     0.525237    -0.701372
 P     1.653347    -0.451537     0.607742
 P    -1.596932    -0.266532    -0.750455
 C    -0.767643    -2.363134     1.492122
 O    -1.244284    -2.641308     2.503961
 C    -0.822997     2.426351    -1.279512
 H    -1.264343     2.703681    -0.322136
 C    -0.335596     0.811083    -2.992548
 H    -0.372097    -0.213178    -3.371182
 C    -0.128990     3.401649    -1.994739
 H    -0.039315     4.418796    -1.609282
 C     0.347036     1.775339    -3.724199
 H     0.813102     1.528568    -4.679431
 C     0.466468     3.066203    -3.207181
Cl     1.385356     4.254824    -4.068671
 H    -2.559875    -1.264388    -2.701285
 H    -3.623587     0.011434    -2.070142
 C    -3.815032    -1.930463    -1.070182
 H    -3.111997    -2.681126    -0.672898
 H    -4.329906    -1.496299    -0.193359
 C    -4.852576    -2.633296    -1.948012
 H    -4.313254    -3.056200    -2.816712
 C    -5.488777    -3.789546    -1.185604
 H    -4.728961    -4.505100    -0.835086
 H    -6.207238    -4.338981    -1.813451
 H    -6.033952    -3.422095    -0.299982
 C    -5.914891    -1.674358    -2.473907
 H    -6.657149    -2.203000    -3.091871
 H    -5.482190    -0.873631    -3.092478
 H    -6.457000    -1.197265    -1.639554
 H    -1.599505     1.106808     1.192066
 H    -2.681992    -0.250827     1.357656
 C    -3.595262     1.483771     0.405241
 H    -3.434572     2.062637    -0.519883
 H    -4.500307     0.877918     0.221471
 C    -3.869927     2.463861     1.550539
 H    -2.957590     3.077771     1.681726
 C    -5.016903     3.400256     1.192568
 H    -4.818182     3.942414     0.254638
 H    -5.186626     4.146323     1.984099
 H    -5.955867     2.837406     1.059077
 C    -4.129934     1.751852     2.872947
 H    -4.314572     2.476981     3.679677
 H    -3.274327     1.133160     3.181976
 H    -5.013484     1.095307     2.798666
 C     0.461282     0.388520     2.991520
 H     0.503414    -0.666099     3.273386
 C     0.933463     2.174934     1.454262
 H     1.361181     2.550851     0.524771
 C    -0.205103     1.272044     3.832580
 H    -0.657802     0.925125     4.762774
 C     0.261972     3.072315     2.283370
 H     0.178484     4.126491     2.013000
 C    -0.320011     2.612302     3.461157
Cl    -1.212715     3.708546     4.461502
 H     2.590000    -1.685557     2.439978
 H     3.689046    -0.386727     1.935282
 C     3.814009    -2.219369     0.737974
 H     3.087161    -2.913528     0.286612
 H     4.319630    -1.715402    -0.106353
 C     4.855156    -3.019592     1.523241
 H     4.327543    -3.508433     2.364220
 C     5.446459    -4.114924     0.643376
 H     4.661956    -4.777360     0.245981
 H     6.164788    -4.735939     1.200739
 H     5.981418    -3.679149    -0.217179
 C     5.951770    -2.135028     2.105911
 H     6.696249    -2.733039     2.654032
 H     5.553242    -1.384694     2.805330
 H     6.484373    -1.595744     1.303946
 H     1.691869     1.131153    -1.160660
 H     2.751412    -0.216077    -1.470870
 C     3.685264     1.385659    -0.311335
 H     3.531852     1.832696     0.685435
 H     4.585167     0.752278    -0.215830
 C     3.967148     2.513752    -1.309007
 H     3.057646     3.144076    -1.354785
 C     5.117386     3.386474    -0.823353
 H     4.918454     3.795218     0.179889
 H     5.292560     4.233624    -1.504253
 H     6.053525     2.806194    -0.766579
 C     4.226379     1.991251    -2.717091
 H     4.407683     2.820814    -3.416888
 H     3.371159     1.418567    -3.105523
 H     5.111404     1.332738    -2.734885
