  82
scf done:    -2867.408239
 C    -0.539648     1.473764     3.471864
 H    -0.965424     2.482251     3.476768
 H    -1.176891     0.725664     3.950985
 C     0.884904     1.313857     3.507263
 H     1.523189     2.202511     3.539616
 H     1.314738     0.442570     4.007815
 H    -0.009566    -0.671559     2.174474
Ir     0.143448     0.825867     1.530121
 C    -1.641803    -1.398633    -0.565136
 O    -3.041516    -0.035670     1.307920
 O    -2.269097     1.110226    -0.875531
 C     1.400737    -0.389068    -1.558030
 O     3.087199     0.937928     0.083345
 O     2.384475    -1.541736     0.554516
 P     1.757549    -0.050195     0.190331
 P    -1.686724     0.162736     0.362587
 C     0.432973     2.640025     0.920161
 O     0.680615     3.706386     0.585196
 C    -2.153228    -1.519827    -1.861490
 H    -2.599207    -0.651177    -2.346488
 C    -1.064591    -2.513414     0.055493
 H    -0.648797    -2.417375     1.061896
 C    -2.084449    -2.735597    -2.533857
 H    -2.464903    -2.848667    -3.550475
 C    -1.000400    -3.735450    -0.604366
 H    -0.554742    -4.617065    -0.139969
 C    -1.508443    -3.826620    -1.895334
 F    -1.429038    -4.987643    -2.540489
 C    -4.189653    -0.615465     0.820500
 C    -5.094115     0.134965     0.069548
 H    -4.882577     1.185283    -0.136285
 C    -4.441455    -1.957276     1.104304
 H    -3.715552    -2.517583     1.695733
 C    -6.256360    -0.471571    -0.403457
 H    -6.966743     0.114864    -0.991032
 C    -5.605895    -2.552899     0.626829
 H    -5.802856    -3.604590     0.847803
 C    -6.514784    -1.814181    -0.130576
 H    -7.426496    -2.284487    -0.505382
 C    -2.300345     2.473691    -0.798408
 C    -2.707772     3.137228     0.361851
 H    -3.004852     2.561591     1.240586
 C    -1.918884     3.192099    -1.931716
 H    -1.615202     2.641359    -2.823645
 C    -2.708822     4.530672     0.382166
 H    -3.016238     5.050722     1.292368
 C    -1.931238     4.583570    -1.898818
 H    -1.627937     5.146159    -2.784892
 C    -2.318945     5.257826    -0.740711
 H    -2.317842     6.349399    -0.714766
 C     1.529911    -1.654344    -2.137668
 H     1.916442    -2.480922    -1.541195
 C     0.893860     0.670560    -2.320663
 H     0.768678     1.660056    -1.872221
 C     1.150444    -1.865270    -3.459426
 H     1.224792    -2.849153    -3.925743
 C     0.526408     0.474414    -3.646423
 H     0.133667     1.286156    -4.261168
 C     0.653442    -0.797067    -4.194937
 F     0.276533    -0.997342    -5.455092
 C     4.042931     0.880252    -0.901063
 C     4.757746    -0.287757    -1.166676
 H     4.548515    -1.191118    -0.592764
 C     4.294768     2.049272    -1.617985
 H     3.715436     2.943760    -1.380618
 C     5.729320    -0.276164    -2.165919
 H     6.289908    -1.189871    -2.377308
 C     5.271956     2.048884    -2.609603
 H     5.470678     2.965084    -3.170756
 C     5.990481     0.886368    -2.889324
 H     6.754404     0.887366    -3.669767
 C     2.615298    -1.955262     1.840636
 C     2.149933    -3.215822     2.209576
 H     1.608235    -3.814111     1.474559
 C     3.317879    -1.159251     2.744724
 H     3.675127    -0.175802     2.434253
 C     2.386172    -3.682487     3.500495
 H     2.021380    -4.670202     3.792030
 C     3.542400    -1.634971     4.034822
 H     4.087725    -1.011436     4.747108
 C     3.078573    -2.892889     4.418158
 H     3.258292    -3.258745     5.431242
