  90
scf done:    -2723.734131
 C     0.874356    -2.272941    -2.558706
 H     1.308421    -1.838714    -3.465798
 H     1.541562    -2.982080    -2.059136
 C    -0.544238    -2.486576    -2.505814
 H    -1.165664    -2.193229    -3.358365
 H    -0.921524    -3.365773    -1.978577
 H     0.198391    -2.080102    -0.134692
Ir    -0.017234    -0.858377    -1.195984
 C     2.733350    -1.311808     0.832444
 C     3.253381     0.658385    -1.156983
 C     1.684503     1.435379     1.110143
 C    -1.936646     1.584531     0.501829
 C    -3.463952    -0.420165    -1.016923
 C    -2.400402    -1.019312     1.587517
 P    -1.940324    -0.188838     0.004675
 P     1.878322     0.039135    -0.086199
 C    -0.329440     0.427567    -2.575285
 O    -0.547847     1.146473    -3.448295
 C     2.135739    -1.931121     1.940221
 H     1.179626    -1.571590     2.319408
 C     3.930395    -1.851684     0.345317
 H     4.409470    -1.411253    -0.530633
 C     2.726146    -3.021798     2.568304
 H     2.265531    -3.498494     3.435517
 C     4.527217    -2.953611     0.954402
 H     5.458812    -3.376705     0.574448
 C     3.921396    -3.522310     2.065342
 F     4.488878    -4.570743     2.657134
 C     3.098132     0.497357    -2.537305
 H     2.194059     0.006347    -2.897887
 C     4.426518     1.274485    -0.656426
 C     4.710935     1.494559     0.801777
 H     4.399456     0.644440     1.421889
 H     4.177255     2.378751     1.184140
 H     5.786640     1.657514     0.957057
 C     4.058380     0.944550    -3.439701
 H     3.905550     0.807247    -4.512380
 C     5.379556     1.715440    -1.583813
 H     6.289094     2.191571    -1.207264
 C     5.206000     1.564295    -2.956962
 H     5.973546     1.925637    -3.645761
 C     1.732870     1.224063     2.493433
 H     1.923743     0.226188     2.885136
 C     1.473164     2.747396     0.624164
 C     1.435623     3.091473    -0.835213
 H     0.917411     2.325139    -1.425335
 H     2.450864     3.181452    -1.251881
 H     0.920464     4.048852    -0.988926
 C     1.593113     2.272491     3.397642
 H     1.646191     2.072711     4.470412
 C     1.342473     3.786556     1.553075
 H     1.178457     4.800753     1.179055
 C     1.404321     3.566706     2.924859
 H     1.296902     4.404192     3.618210
 C    -1.844779     2.595216    -0.466083
 H    -1.780106     2.343469    -1.525265
 C    -1.931939     1.960549     1.852274
 H    -1.962367     1.196870     2.630857
 C    -1.818984     3.938856    -0.105637
 H    -1.758300     4.728189    -0.856946
 C    -1.885078     3.298832     2.226957
 H    -1.866076     3.594025     3.276971
 C    -1.839899     4.273758     1.241044
 F    -1.777574     5.557427     1.594147
 C    -4.119946     0.664494    -1.610696
 H    -3.788971     1.681179    -1.401910
 C    -3.943792    -1.729281    -1.256016
 C    -3.364220    -2.950345    -0.604601
 H    -3.784152    -3.094825     0.403914
 H    -2.274911    -2.876068    -0.493778
 H    -3.593274    -3.847669    -1.196300
 C    -5.216248     0.483388    -2.448309
 H    -5.704851     1.351545    -2.896552
 C    -5.047001    -1.886451    -2.103764
 H    -5.415552    -2.898596    -2.292537
 C    -5.681045    -0.802739    -2.702908
 H    -6.537198    -0.964419    -3.362075
 C    -1.472628    -1.913664     2.126706
 H    -0.562426    -2.099244     1.554460
 C    -3.631398    -0.808747     2.255226
 C    -4.730394     0.076392     1.742576
 H    -5.296096    -0.425723     0.942044
 H    -4.354241     1.016153     1.319564
 H    -5.433058     0.319598     2.551675
 C    -1.709524    -2.588915     3.319710
 H    -0.964849    -3.286011     3.711318
 C    -3.847142    -1.496044     3.457474
 H    -4.791670    -1.335402     3.984405
 C    -2.907181    -2.372245     3.993268
 H    -3.118202    -2.889101     4.932639
