  94
scf done:    -3024.549732
 C     0.861060     0.615308     3.793245
 H     1.267322    -0.218751     4.373480
 H     1.541378     1.469525     3.730368
 C    -0.555056     0.844211     3.784416
 H    -1.206165     0.182271     4.363533
 H    -0.937367     1.864629     3.696996
 H     0.292554     1.609547     1.506927
Ir     0.040394     0.041435     1.872874
 C     2.843229     0.950980    -0.154707
 O     2.830537    -1.487935     1.050947
 O     1.441921    -1.023057    -1.071059
 C    -2.810177    -0.864514    -0.219751
 O    -2.806705     1.470396     1.133919
 O    -1.368315     1.145943    -0.982353
 P    -1.709012     0.405014     0.464591
 P     1.753494    -0.372048     0.432849
 C    -0.223057    -1.776593     2.460881
 O    -0.358843    -2.842849     2.861449
 C     3.599812     0.813762    -1.326895
 H     3.493509    -0.083483    -1.937653
 C     2.974450     2.106564     0.619832
 H     2.367803     2.216777     1.521284
 C     4.475203     1.818592    -1.718677
 H     5.071972     1.736471    -2.628633
 C     3.851000     3.117632     0.238668
 H     3.958232     4.033737     0.821449
 C     4.585790     2.956751    -0.927670
 F     5.405897     3.934606    -1.315076
 C     4.036081    -1.767226     0.452614
 C     4.116037    -2.677903    -0.598763
 H     3.211860    -3.172805    -0.956724
 C     5.186007    -1.128919     0.915229
 H     5.099318    -0.412234     1.733859
 C     5.352388    -2.937090    -1.187043
 H     5.407675    -3.649836    -2.014553
 C     6.412049    -1.399783     0.318113
 H     7.307539    -0.888936     0.682809
 C     6.520058    -2.305991    -0.744820
 C     7.852556    -2.609132    -1.366567
 H     7.740105    -3.038982    -2.372133
 H     8.417219    -3.336244    -0.759262
 H     8.473831    -1.704814    -1.449142
 C     0.548116    -2.038836    -1.275039
 C     0.463308    -3.141591    -0.425136
 H     1.115563    -3.211442     0.446107
 C    -0.277517    -1.963303    -2.396899
 H    -0.210484    -1.088083    -3.044297
 C    -0.452872    -4.154581    -0.702714
 H    -0.514811    -5.008674    -0.023058
 C    -1.175182    -2.989306    -2.665148
 H    -1.818137    -2.916062    -3.546370
 C    -1.283192    -4.106172    -1.825399
 C    -2.250289    -5.211801    -2.134045
 H    -3.284287    -4.840855    -2.201584
 H    -2.225550    -5.991959    -1.360275
 H    -2.014577    -5.689909    -3.098347
 C    -3.474367    -0.683543    -1.440336
 H    -3.265560     0.202767    -2.040014
 C    -3.074281    -2.004233     0.543731
 H    -2.559762    -2.158003     1.493707
 C    -4.391399    -1.625373    -1.888431
 H    -4.919606    -1.505664    -2.835847
 C    -3.993109    -2.953786     0.106646
 H    -4.204951    -3.855180     0.683659
 C    -4.636921    -2.747264    -1.105223
 F    -5.498925    -3.664873    -1.544591
 C    -4.026831     1.727541     0.555485
 C    -4.145832     2.637499    -0.492556
 H    -3.260310     3.154611    -0.865010
 C    -5.154544     1.060923     1.033764
 H    -5.038337     0.346385     1.850564
 C    -5.397324     2.867100    -1.061719
 H    -5.482582     3.579898    -1.886635
 C    -6.395160     1.300640     0.454775
 H    -7.271948     0.766405     0.831344
 C    -6.541653     2.205429    -0.605206
 C    -7.890197     2.470218    -1.209605
 H    -7.803715     2.967144    -2.186279
 H    -8.495802     3.123212    -0.559310
 H    -8.458106     1.538106    -1.350427
 C    -0.514690     2.203092    -1.149361
 C    -0.540085     3.324860    -0.320097
 H    -1.229783     3.361912     0.524098
 C     0.377438     2.149928    -2.219636
 H     0.399621     1.255609    -2.843119
 C     0.329328     4.383850    -0.575328
 H     0.305259     5.256608     0.082943
 C     1.230944     3.219169    -2.463169
 H     1.929673     3.161247    -3.301960
 C     1.225508     4.358176    -1.647769
 C     2.154120     5.504909    -1.923042
 H     2.043869     6.299458    -1.171639
 H     1.957414     5.950066    -2.911532
 H     3.206570     5.181805    -1.918335
