 108
scf done:    -2761.076398
 C    -0.063160    -2.988802    -2.388111
 H     0.383643    -2.936039    -3.386730
 H     0.357808    -3.784847    -1.766376
 C    -1.452737    -2.652706    -2.225762
 H    -2.026720    -2.347753    -3.107737
 H    -2.052857    -3.208244    -1.498183
 H    -0.162436    -2.037377    -0.010212
Ir    -0.242937    -1.097395    -1.358920
 C     3.202385    -1.318015    -0.421907
 C     2.297131     1.314391    -1.295872
 C     1.419410     0.257584     1.364618
 C    -1.515794     1.998700    -0.146537
 C    -3.446677     0.167221    -1.259498
 C    -2.427822    -0.175456     1.457675
 P    -1.872203     0.197696    -0.271682
 P     1.724485    -0.234125    -0.418518
 C    -0.159151    -0.102301    -2.981687
 O    -0.060472     0.486604    -3.967525
 C     4.377280    -1.049277     0.298356
 H     4.465056    -0.155526     0.912787
 C     3.164113    -2.464656    -1.223430
 H     2.251197    -2.670995    -1.785279
 C     5.460546    -1.918943     0.228725
 H     6.361657    -1.687494     0.803410
 C     4.257072    -3.323373    -1.296470
 H     4.200570    -4.210491    -1.933556
 C     5.421911    -3.072516    -0.563240
 C     6.583505    -4.021030    -0.602349
 H     6.606785    -4.593388    -1.540826
 H     7.541406    -3.491011    -0.496387
 H     6.521334    -4.748759     0.224244
 H     2.379722     0.972882    -2.339566
 H     1.423201     1.981708    -1.259835
 C     3.561622     2.002667    -0.879375
 C     4.791716     1.480732    -1.300164
 H     4.797525     0.594183    -1.937997
 C     3.551061     3.178763    -0.099734
 C     2.268866     3.862881     0.275669
 H     1.565332     3.207163     0.808045
 H     1.732312     4.217215    -0.618770
 H     2.459442     4.734290     0.917502
 C     5.998101     2.057287    -0.915331
 H     6.941717     1.620201    -1.249872
 C     4.772506     3.744799     0.281623
 H     4.763567     4.653347     0.890484
 C     5.989487     3.188846    -0.104798
 H     6.927288     3.651711     0.211501
 H     1.058811     1.295042     1.311435
 H     0.552891    -0.363240     1.625353
 C     2.490415     0.101095     2.396582
 C     3.290662     1.187580     2.764325
 H     3.110276     2.160615     2.305251
 C     2.717976    -1.159083     2.989716
 C     1.872144    -2.346255     2.636063
 H     1.923449    -2.574337     1.559743
 H     0.808153    -2.175300     2.870255
 H     2.196503    -3.239523     3.186691
 C     4.333689     1.042133     3.674334
 H     4.956340     1.902161     3.931291
 C     3.764536    -1.285824     3.908373
 H     3.949934    -2.262952     4.362719
 C     4.576187    -0.204991     4.245226
 H     5.393484    -0.337262     4.958298
 C    -1.311844     2.715346    -1.336203
 H    -1.337780     2.197374    -2.298006
 C    -1.439554     2.703330     1.059821
 H    -1.578930     2.192127     2.013315
 C    -1.090221     4.086592    -1.318210
 H    -0.954677     4.618077    -2.264436
 C    -1.202159     4.077983     1.072501
 H    -1.154493     4.601348     2.031535
 C    -1.034950     4.799164    -0.111555
 C    -0.760274     6.273195    -0.098223
 H    -1.058819     6.731262     0.855147
 H     0.315686     6.472260    -0.237922
 H    -1.292771     6.789730    -0.910465
 H    -3.190485     0.703274    -2.188498
 H    -3.549962    -0.885836    -1.547187
 C    -4.711099     0.701820    -0.649791
 C    -4.806648     2.050767    -0.280750
 H    -3.949634     2.708136    -0.437796
 C    -5.832394    -0.139030    -0.473674
 C    -5.814377    -1.581674    -0.889158
 H    -5.015315    -2.144786    -0.384327
 H    -5.655776    -1.686663    -1.974709
 H    -6.767545    -2.068317    -0.643197
 C    -5.973187     2.572239     0.273066
 H    -6.018611     3.627591     0.551919
 C    -6.995851     0.403917     0.083912
 H    -7.862989    -0.247578     0.222230
 C    -7.075160     1.742029     0.460389
 H    -7.997991     2.134649     0.894065
 H    -1.510379    -0.222597     2.067945
 H    -2.992475     0.702864     1.792790
 C    -3.260452    -1.413716     1.664607
 C    -2.823292    -2.656060     1.191849
 H    -1.870680    -2.704355     0.660520
 C    -4.475793    -1.335755     2.379026
 C    -4.971284    -0.046256     2.967503
 H    -5.094872     0.736029     2.203524
 H    -4.276126     0.341454     3.730309
 H    -5.947162    -0.189607     3.450427
 C    -3.578352    -3.810773     1.382552
 H    -3.215212    -4.766657     0.997744
 C    -5.222387    -2.506243     2.556380
 H    -6.168020    -2.446388     3.102081
 C    -4.790735    -3.734475     2.062235
 H    -5.398515    -4.629478     2.215581
