  88
scf done:    -3144.361461
 C     0.867913     0.601518     3.751956
 H     1.258417    -0.239962     4.332235
 H     1.564517     1.442143     3.685995
 C    -0.542801     0.856791     3.742481
 H    -1.207026     0.207414     4.320796
 H    -0.906183     1.883900     3.652617
 H     0.324223     1.600750     1.464766
Ir     0.037874     0.039776     1.830817
 C     2.873549     0.904600    -0.175490
 O     2.812071    -1.532459     1.046816
 O     1.459368    -1.070662    -1.091688
 C    -2.848251    -0.819599    -0.235822
 O    -2.792258     1.517342     1.131854
 O    -1.395943     1.189062    -1.003248
 P    -1.724599     0.428920     0.442349
 P     1.761337    -0.396662     0.409800
 C    -0.254047    -1.772068     2.425358
 O    -0.400010    -2.834316     2.832813
 C     3.629477     0.762520    -1.345822
 H     3.520293    -0.135108    -1.956028
 C     3.020943     2.062155     0.594203
 H     2.422701     2.180837     1.500399
 C     4.506156     1.768553    -1.734573
 H     5.087948     1.647164    -2.652404
 C     3.903776     3.060768     0.197800
 H     3.996066     3.967288     0.801696
 C     4.654108     2.937460    -0.977050
 C     5.545544     4.052339    -1.433230
 H     4.937800     4.854998    -1.881947
 H     6.100461     4.495022    -0.592835
 H     6.269701     3.713165    -2.186986
 C     4.019202    -1.829857     0.464835
 C     4.097873    -2.767305    -0.565379
 H     3.191396    -3.262168    -0.916819
 C     5.169891    -1.189103     0.924837
 H     5.081001    -0.454021     1.726249
 C     5.331586    -3.059897    -1.142101
 H     5.423033    -3.789017    -1.949072
 C     6.404123    -1.479220     0.352662
 H     7.318610    -0.989391     0.691320
 C     6.468634    -2.409867    -0.677936
 F     7.648875    -2.686428    -1.232547
 C     0.520693    -2.044308    -1.284624
 C     0.398076    -3.139102    -0.424608
 H     1.065697    -3.235242     0.432320
 C    -0.317583    -1.930621    -2.393871
 H    -0.211805    -1.067491    -3.051402
 C    -0.581481    -4.100485    -0.659216
 H    -0.708459    -4.950698     0.012829
 C    -1.286196    -2.897392    -2.640017
 H    -1.961588    -2.820069    -3.492877
 C    -1.414398    -3.964502    -1.760892
 F    -2.365066    -4.878461    -1.977394
 C    -3.105067    -1.970840     0.513391
 H    -2.589470    -2.132459     1.461698
 C    -3.524980    -0.632216    -1.447188
 H    -3.332398     0.262972    -2.039701
 C    -4.015679    -2.918759     0.058125
 H    -4.194255    -3.819736     0.650695
 C    -4.431357    -1.585785    -1.894345
 H    -4.951921    -1.426806    -2.842765
 C    -4.687871    -2.748736    -1.156900
 C    -5.610522    -3.808776    -1.676439
 H    -6.318022    -3.406672    -2.415145
 H    -5.024656    -4.603694    -2.166417
 H    -6.184598    -4.278986    -0.864743
 C    -4.011922     1.800839     0.569531
 C    -4.123618     2.743308    -0.453154
 H    -3.232355     3.257109    -0.815696
 C    -5.144370     1.135521     1.040199
 H    -5.030805     0.397484     1.835686
 C    -5.370661     3.015874    -1.010936
 H    -5.486920     3.748213    -1.811791
 C    -6.391504     1.404294     0.486248
 H    -7.291372     0.893667     0.833270
 C    -6.488280     2.340170    -0.537098
 F    -7.681082     2.596483    -1.074552
 C    -0.490641     2.200274    -1.163384
 C    -0.461284     3.313862    -0.318442
 H    -1.159097     3.378726     0.517321
 C     0.403621     2.106104    -2.228877
 H     0.373704     1.223079    -2.867052
 C     0.476943     4.319628    -0.533651
 H     0.532277     5.190403     0.121767
 C     1.335163     3.114456    -2.452464
 H     2.055379     3.051110    -3.268927
 C     1.367347     4.203142    -1.592731
 F     2.284153     5.157663    -1.780934
