 102
scf done:    -3601.454493
 C    -0.643312    -3.879898    -1.843009
 H    -0.295906    -4.033357    -2.869906
 H    -0.154233    -4.536631    -1.116165
 C    -2.011382    -3.496365    -1.619500
 H    -2.670383    -3.362937    -2.483496
 H    -2.529591    -3.853165    -0.724627
 H    -0.622879    -2.487793     0.280402
Ir    -0.719082    -1.819131    -1.215042
 C     1.503771    -0.018683     0.778427
 C     2.437936    -2.617754    -0.007228
 C     2.522526    -0.578832    -2.074003
 C    -1.412706     1.467882     0.041669
 C    -3.610774     0.197439    -1.215091
 C    -2.771363    -0.633319     1.461919
 P    -2.083492    -0.221294    -0.212413
 P     1.446982    -1.174859    -0.655555
 C    -0.774050    -1.075806    -2.969677
 O    -0.756557    -0.583635    -4.013073
 C     1.890732     1.325596     0.755655
 H     2.296376     1.776443    -0.145177
 C     0.954611    -0.521813     1.969601
 H     0.608399    -1.557458     2.009210
 C     1.735229     2.139461     1.876147
 H     2.015379     3.192895     1.831044
 C     0.800009     0.275130     3.097337
 H     0.364625    -0.127883     4.013490
 C     1.184582     1.614621     3.039369
Cl     0.923424     2.643623     4.408240
 H     1.894756    -2.967773     0.882778
 H     2.313636    -3.400881    -0.770081
 C     3.882858    -2.348528     0.276105
 C     4.872720    -2.772638    -0.620460
 H     4.589981    -3.356450    -1.500864
 C     4.276741    -1.622535     1.407426
 H     3.516896    -1.286211     2.116088
 C     6.211043    -2.457031    -0.396661
 H     6.973397    -2.788858    -1.105487
 C     5.613566    -1.289085     1.643195
 C     5.993570    -0.500743     2.862783
 H     5.234388     0.260273     3.096934
 H     6.081772    -1.155858     3.745379
 H     6.960493     0.005424     2.730855
 C     6.579329    -1.713465     0.722175
 H     7.630040    -1.458989     0.886091
 H     3.228963    -1.406020    -2.242538
 H     1.845645    -0.556520    -2.937624
 C     3.265119     0.717754    -1.978884
 C     2.758860     1.861792    -2.607450
 H     1.852068     1.786705    -3.213996
 C     4.444208     0.823314    -1.235251
 H     4.850736    -0.065882    -0.750904
 C     3.399537     3.088602    -2.450819
 H     2.998610     3.979931    -2.940140
 C     5.094197     2.048297    -1.060939
 C     6.319416     2.135316    -0.198333
 H     6.920909     3.024923    -0.433331
 H     6.039454     2.194275     0.866871
 H     6.952020     1.243304    -0.314058
 C     4.551770     3.184866    -1.672747
 H     5.043831     4.153071    -1.546797
 C    -1.672371     2.251518     1.169338
 H    -2.246864     1.853872     2.006577
 C    -0.673858     2.028265    -1.007281
 H    -0.440616     1.418548    -1.884223
 C    -1.214763     3.564073     1.250004
 H    -1.404474     4.166953     2.139040
 C    -0.229848     3.343856    -0.953696
 H     0.347223     3.776469    -1.771777
 C    -0.505034     4.103712     0.181598
Cl     0.059083     5.741005     0.269706
 H    -3.240588     0.322417    -2.243574
 H    -4.226471    -0.714645    -1.208466
 C    -4.347501     1.414892    -0.749426
 C    -5.351965     1.347351     0.224773
 H    -5.691406     0.377427     0.595007
 C    -3.975565     2.677142    -1.227674
 H    -3.203200     2.742963    -1.998551
 C    -5.934058     2.512505     0.719235
 H    -6.721053     2.446315     1.474510
 C    -4.533144     3.857863    -0.731095
 C    -4.046364     5.191181    -1.219948
 H    -3.090122     5.457972    -0.739493
 H    -3.868952     5.180761    -2.305687
 H    -4.765494     5.992079    -0.997060
 C    -5.520635     3.758996     0.255481
 H    -5.975760     4.668525     0.656837
 H    -1.938943    -0.464489     2.161216
 H    -3.563780     0.094163     1.697130
 C    -3.268634    -2.043490     1.570720
 C    -4.534850    -2.414150     1.102316
 H    -5.209482    -1.660050     0.692784
 C    -2.446170    -3.036244     2.109458
 H    -1.462140    -2.754792     2.492849
 C    -4.945930    -3.742874     1.156815
 H    -5.937059    -4.019405     0.789547
 C    -2.833320    -4.378528     2.158956
 C    -1.888343    -5.419752     2.683464
 H    -1.382480    -5.081041     3.600259
 H    -2.406289    -6.363068     2.906499
 H    -1.103331    -5.638401     1.940422
 C    -4.099168    -4.721066     1.672972
 H    -4.424677    -5.764283     1.702867
