  94
scf done:    -3024.401580
 C     1.005672     3.251525    -1.054107
 H     1.669157     3.798468    -0.375974
 H     1.469255     3.025000    -2.018924
 C    -0.410942     3.491285    -0.981509
 H    -0.775662     4.233080    -0.261373
 H    -1.011985     3.445901    -1.894019
 H    -0.102430     1.101587    -1.746306
Ir     0.054205     1.544292    -0.181004
 C     1.414288    -1.547451    -1.221184
 C     3.240804     0.690192    -1.061760
 C     2.492207    -0.706914     1.324231
 C    -1.722912    -0.858492     1.652899
 C    -3.431926     1.123415     0.509116
 C    -2.355312    -0.890342    -1.195215
 P    -1.862170     0.229553     0.180558
 P     1.776541    -0.040909    -0.231356
 C     0.248118     2.233770     1.592737
 O     0.386736     2.717419     2.628380
 C     1.636379    -2.841279    -0.734957
 H     2.107020    -2.985201     0.238820
 C     0.796948    -1.403498    -2.472755
 H     0.576038    -0.401445    -2.846020
 C     1.238980    -3.960676    -1.463794
 H     1.388333    -4.972430    -1.082284
 C     0.425396    -2.510634    -3.225312
 H    -0.069394    -2.402348    -4.191120
 C     0.637515    -3.779023    -2.701371
 F     0.237539    -4.844972    -3.394724
 C     3.673653     0.324166    -2.333279
 H     3.176160    -0.499106    -2.849336
 C     3.909074     1.735880    -0.391699
 O     3.457230     2.022132     0.842395
 C     3.977505     3.109769     1.549750
 H     5.044677     2.966039     1.794748
 H     3.400013     3.175938     2.480342
 H     3.861707     4.053049     0.987568
 C     4.738145     0.983318    -2.951022
 H     5.059513     0.682548    -3.950485
 C     4.975891     2.397603    -1.004509
 H     5.491960     3.208057    -0.488897
 C     5.384402     2.018243    -2.283765
 H     6.218845     2.542517    -2.755898
 C     1.831655    -0.487606     2.530949
 H     0.873830     0.032460     2.511444
 C     3.732924    -1.382392     1.347948
 O     4.320625    -1.598862     0.158825
 C     5.612908    -2.129078     0.098015
 H     6.331299    -1.514800     0.667730
 H     5.899116    -2.120717    -0.961212
 H     5.650637    -3.166950     0.473646
 C     2.363484    -0.918396     3.745480
 H     1.817749    -0.740012     4.673746
 C     4.278559    -1.806226     2.564117
 H     5.237685    -2.324208     2.587739
 C     3.589917    -1.572650     3.754712
 H     4.025728    -1.912498     4.697609
 C    -2.342063    -0.513362     2.860053
 H    -3.005976     0.352909     2.902501
 C    -0.855748    -1.958713     1.640009
 H    -0.314224    -2.216195     0.728754
 C    -2.115513    -1.252302     4.018772
 H    -2.587708    -0.985656     4.966170
 C    -0.639342    -2.721388     2.783033
 H     0.041486    -3.574206     2.777726
 C    -1.272105    -2.354787     3.963244
 F    -1.054329    -3.066067     5.069961
 C    -3.427032     2.515459     0.545690
 H    -2.470104     3.017439     0.385970
 C    -4.653334     0.439352     0.694202
 O    -4.597917    -0.902957     0.674885
 C    -5.771380    -1.653942     0.791840
 H    -6.259933    -1.501545     1.770228
 H    -5.475442    -2.706543     0.700506
 H    -6.490860    -1.414394    -0.010249
 C    -4.599714     3.240247     0.758612
 H    -4.573708     4.331428     0.783980
 C    -5.833178     1.161719     0.901062
 H    -6.781703     0.643392     1.043805
 C    -5.798153     2.556308     0.931326
 H    -6.727748     3.107404     1.095282
 C    -2.428724    -2.279065    -1.101148
 H    -2.237382    -2.760387    -0.142433
 C    -2.676680    -0.285428    -2.430210
 O    -2.681362     1.056879    -2.446760
 C    -2.905794     1.742350    -3.643497
 H    -2.148156     1.490374    -4.405928
 H    -2.831643     2.811057    -3.407308
 H    -3.910564     1.535366    -4.052087
 C    -2.755216    -3.069033    -2.203126
 H    -2.786184    -4.155945    -2.105034
 C    -2.995347    -1.073403    -3.541475
 H    -3.233264    -0.606062    -4.497318
 C    -3.028794    -2.462210    -3.423476
 H    -3.278130    -3.068901    -4.297525
