 108
scf done:    -2461.290511
 C    -0.729777    -0.355408    -3.630199
 H    -1.243450    -1.260433    -3.972857
 H    -1.274315     0.562032    -3.878544
 C     0.714256    -0.334221    -3.645828
 H     1.249288    -1.222522    -4.000229
 H     1.227265     0.599930    -3.895940
 H    -0.013971     1.215089    -1.781842
Ir     0.012846    -0.413699    -1.617898
 C    -1.463471     1.707163     0.709333
 C    -3.279720     0.572402    -1.213081
 C    -2.284953    -1.026442     1.175734
 C     1.434433    -0.909149     1.538536
 C     3.307690    -1.109867    -0.625024
 C     2.273557     1.590994     0.329943
 P     1.794115    -0.152184    -0.098011
 P    -1.783792     0.134612    -0.190411
 C     0.097735    -2.315953    -1.608762
 O     0.209023    -3.463111    -1.673113
 C    -1.275907     1.792506     2.091382
 H    -1.384667     0.909300     2.720266
 C    -1.314699     2.885951    -0.039833
 H    -1.438562     2.854725    -1.124648
 C    -0.917830     2.998862     2.696614
 H    -0.761655     3.026213     3.778982
 C    -0.983741     4.088712     0.568550
 H    -0.880224     4.987791    -0.045587
 C    -0.757995     4.167501     1.950778
 C    -0.330885     5.456889     2.586650
 H     0.709430     5.702040     2.313523
 H    -0.957613     6.297945     2.252964
 H    -0.383165     5.404790     3.683164
 H    -2.793859     1.161919    -2.013038
 C    -4.376522     1.445361    -0.602776
 H    -3.944188     2.331783    -0.114353
 H    -4.913721     0.887726     0.180013
 C    -5.370948     1.866730    -1.682877
 H    -6.170926     2.482352    -1.239927
 H    -4.853635     2.511183    -2.416788
 C    -5.965123     0.660650    -2.403379
 H    -6.648625     0.988786    -3.203423
 H    -6.579608     0.082810    -1.688778
 C    -4.877291    -0.246237    -2.969296
 H    -4.335553     0.284372    -3.772770
 H    -5.324367    -1.139767    -3.434648
 C    -3.878654    -0.659367    -1.893129
 H    -4.398500    -1.277070    -1.139519
 H    -3.074024    -1.277739    -2.320071
 H    -1.420873    -0.949109     1.863165
 C    -2.347295    -2.491951     0.740328
 H    -1.419584    -2.770898     0.225872
 H    -3.162718    -2.633004     0.011570
 C    -2.569387    -3.411686     1.937520
 H    -2.648453    -4.456143     1.594689
 H    -1.677597    -3.361900     2.584992
 C    -3.796856    -3.020969     2.751402
 H    -3.892687    -3.669015     3.638147
 H    -4.706872    -3.186902     2.146418
 C    -3.737533    -1.554743     3.162137
 H    -2.891107    -1.400229     3.856747
 H    -4.649361    -1.268437     3.711383
 C    -3.555702    -0.654245     1.944008
 H    -4.424956    -0.786441     1.278156
 H    -3.550846     0.405031     2.241145
 C     1.284282    -2.304672     1.604725
 H     1.445015    -2.915662     0.713488
 C     1.204253    -0.178026     2.707287
 H     1.306597     0.906929     2.709548
 C     0.917628    -2.933425     2.786708
 H     0.816236    -4.022255     2.802614
 C     0.813572    -0.812599     3.887899
 H     0.628782    -0.208829     4.781263
 C     0.658022    -2.198113     3.952769
 C     0.200526    -2.882465     5.206383
 H     0.228906    -2.204824     6.071115
 H    -0.836420    -3.243694     5.099685
 H     0.824068    -3.759560     5.437364
 H     2.847033    -2.068273    -0.931363
 C     4.373675    -1.434305     0.422339
 H     3.915941    -1.861071     1.327458
 H     4.885780    -0.511370     0.736049
 C     5.403801    -2.401426    -0.157343
 H     6.179601    -2.620962     0.594326
 H     4.907958    -3.363388    -0.381684
 C     6.037117    -1.852234    -1.431550
 H     6.746838    -2.582071    -1.854054
 H     6.629852    -0.953761    -1.179535
 C     4.979841    -1.476270    -2.464180
 H     4.465193    -2.389798    -2.812750
 H     5.451970    -1.028217    -3.353636
 C     3.944564    -0.518455    -1.883211
 H     4.441063     0.433568    -1.625708
 H     3.164100    -0.285175    -2.622835
 H     1.375586     1.933032     0.880353
 C     2.403037     2.514820    -0.884554
 H     1.524043     2.394815    -1.533940
 H     3.280013     2.219707    -1.484797
 C     2.556043     3.966826    -0.441869
 H     2.676012     4.616591    -1.324168
 H     1.621791     4.281416     0.054082
 C     3.722037     4.157196     0.521581
 H     3.768936     5.202644     0.868723
 H     4.671161     3.965060    -0.011301
 C     3.620716     3.204088     1.706806
 H     2.734457     3.464575     2.314700
 H     4.496444     3.313308     2.367311
 C     3.494577     1.757311     1.238021
 H     4.400343     1.491444     0.667485
 H     3.457793     1.072502     2.098087
