  90
scf done:    -2723.751883
 C    -0.260137    -3.686720    -1.637409
 H     0.156744    -3.841043    -2.638054
 H     0.208521    -4.310913    -0.869749
 C    -1.654942    -3.360075    -1.505546
 H    -2.265264    -3.271383    -2.410253
 H    -2.209550    -3.727485    -0.637289
 H    -0.446727    -2.257184     0.458946
Ir    -0.462196    -1.622274    -1.054900
 C     1.583263     0.250575     1.076081
 C     2.629947    -2.318089     0.327501
 C     2.775120    -0.259027    -1.714618
 C    -1.342545     1.666025     0.079461
 C    -3.407685     0.274295    -1.286083
 C    -2.708969    -0.453548     1.462944
 P    -1.936192    -0.051940    -0.176024
 P     1.638751    -0.895240    -0.362774
 C    -0.427631    -0.915697    -2.825021
 O    -0.358838    -0.443123    -3.875440
 C     1.938599     1.604161     1.078630
 H     2.374503     2.068590     0.198623
 C     0.990274    -0.275949     2.235763
 H     0.663936    -1.318588     2.248266
 C     1.722992     2.402092     2.200618
 H     1.988297     3.460527     2.195664
 C     0.775998     0.505489     3.365355
 H     0.316255     0.095631     4.266816
 C     1.144905     1.845864     3.330596
 F     0.922725     2.610345     4.398549
 H     2.561294    -3.097970    -0.445542
 H     2.048556    -2.686750     1.185149
 C     4.051833    -2.026576     0.689003
 C     4.381461    -1.333420     1.863208
 H     3.589178    -1.028630     2.549497
 C     5.092623    -2.410887    -0.167700
 H     4.858098    -2.973253    -1.076157
 C     5.705499    -1.017355     2.155998
 H     5.939316    -0.472857     3.073983
 C     6.418868    -2.094878     0.123242
 H     7.212564    -2.402437    -0.561652
 C     6.729722    -1.390403     1.284786
 H     7.767645    -1.139423     1.515284
 H     2.140969    -0.235740    -2.610010
 H     3.497119    -1.077042    -1.860896
 C     3.501928     1.044147    -1.584379
 C     4.647728     1.173762    -0.789282
 H     5.042652     0.303932    -0.263026
 C     3.023592     2.174850    -2.258441
 H     2.144510     2.079433    -2.902253
 C     5.271437     2.409663    -0.643245
 H     6.157856     2.491783    -0.009745
 C     3.646305     3.413051    -2.111292
 H     3.255362     4.285348    -2.641218
 C     4.768429     3.536860    -1.293418
 H     5.255896     4.506929    -1.171782
 C    -1.707282     2.467075     1.166543
 H    -2.349290     2.075796     1.956505
 C    -0.529792     2.221045    -0.917485
 H    -0.218349     1.599401    -1.761134
 C    -1.268953     3.785458     1.263915
 H    -1.536526     4.414050     2.114880
 C    -0.103178     3.542344    -0.847652
 H     0.538843     3.980045    -1.613433
 C    -0.475846     4.306827     0.251490
 F    -0.047297     5.564931     0.342296
 H    -3.946743    -0.682888    -1.349830
 H    -2.964526     0.450641    -2.277858
 C    -4.287084     1.414206    -0.876604
 C    -3.990554     2.719258    -1.295892
 H    -3.138965     2.886700    -1.959497
 C    -5.389429     1.230150    -0.031488
 H    -5.663090     0.223211     0.291768
 C    -4.754727     3.801828    -0.871634
 H    -4.499816     4.808731    -1.210685
 C    -6.157123     2.312448     0.396595
 H    -7.013319     2.141525     1.053634
 C    -5.839036     3.604072    -0.017226
 H    -6.439029     4.453307     0.317920
 H    -3.559336     0.228955     1.620293
 H    -1.937868    -0.207009     2.208022
 C    -3.125381    -1.887350     1.605419
 C    -2.321032    -2.788532     2.312601
 H    -1.405683    -2.426396     2.785804
 C    -4.300720    -2.374135     1.021177
 H    -4.955071    -1.695606     0.471122
 C    -2.666770    -4.132962     2.418492
 H    -2.018886    -4.816910     2.971799
 C    -4.652958    -3.718068     1.124964
 H    -5.573558    -4.073567     0.656241
 C    -3.833564    -4.605314     1.819620
 H    -4.105028    -5.660507     1.897542
