  78
scf done:    -3683.938319
 C    -0.910592     0.043277    -3.754241
 H    -1.398482    -0.853028    -4.151209
 H    -1.529091     0.941770    -3.838591
 C     0.517744     0.152061    -3.868345
 H     1.070031    -0.664417    -4.346062
 H     0.960547     1.137640    -4.042254
 H    -0.136680     1.442171    -1.801688
Ir    -0.033311    -0.190270    -1.808324
 C    -1.684927     1.579663     0.697692
 C    -3.465094     0.227226    -1.111073
 C    -2.216831    -1.232095     0.939227
 C     1.764445    -1.266788     1.003403
 C     3.468059    -0.353309    -1.084038
 C     2.122202     1.553630     0.533531
 P     1.812147    -0.027803    -0.350030
 P    -1.819287     0.055272    -0.310309
 C     0.108418    -2.089570    -2.003847
 O     0.215251    -3.221115    -2.178353
 C    -1.320784     1.545781     2.046558
 H    -1.237018     0.587385     2.562104
 C    -1.811127     2.825821     0.067455
 H    -2.080187     2.874015    -0.990780
 C    -1.051920     2.720313     2.746656
 H    -0.742153     2.690180     3.792421
 C    -1.577179     4.005417     0.762095
 H    -1.676218     4.974164     0.269550
 C    -1.175114     3.944777     2.097194
Cl    -0.789863     5.405602     2.938845
 C    -3.762619    -0.649851    -2.161753
 H    -2.994477    -1.344801    -2.507547
 C    -4.451377     1.122006    -0.679511
 H    -4.246593     1.814377     0.139964
 C    -5.012580    -0.641267    -2.769990
 H    -5.256204    -1.320176    -3.589040
 C    -5.704262     1.150421    -1.288047
 H    -6.480109     1.847994    -0.967449
 C    -5.968559     0.265588    -2.325643
 F    -7.163066     0.288413    -2.909943
 C    -3.291885    -1.060865     1.825572
 H    -3.889763    -0.147040     1.791610
 C    -1.485325    -2.419708     0.991128
 H    -0.644344    -2.564604     0.313535
 C    -3.614211    -2.042858     2.753280
 H    -4.445012    -1.923200     3.450923
 C    -1.803672    -3.420256     1.907082
 H    -1.231494    -4.347092     1.965347
 C    -2.861395    -3.214646     2.780460
 F    -3.169612    -4.156956     3.665291
 C     2.091351    -2.599316     0.714202
 H     2.479302    -2.865960    -0.271994
 C     1.266242    -0.961983     2.274681
 H     1.003083     0.067605     2.521528
 C     1.918673    -3.601131     1.663207
 H     2.167709    -4.638034     1.431832
 C     1.090401    -1.954608     3.234496
 H     0.689455    -1.714930     4.220528
 C     1.411606    -3.272474     2.920408
Cl     1.143091    -4.521957     4.086954
 C     3.652280    -0.121295    -2.450061
 H     2.792321     0.181321    -3.049480
 C     4.564757    -0.762773    -0.312522
 H     4.443593    -0.965963     0.753792
 C     4.902117    -0.284819    -3.041970
 H     5.058765    -0.108117    -4.107512
 C     5.817000    -0.937518    -0.891031
 H     6.678796    -1.263263    -0.305825
 C     5.969230    -0.691610    -2.252051
 F     7.165477    -0.858129    -2.808312
 C     2.970508     1.618736     1.649861
 H     3.432820     0.712518     2.045890
 C     1.565832     2.739009     0.046584
 H     0.908723     2.692246    -0.823985
 C     3.229795     2.829197     2.281597
 H     3.879191     2.890858     3.156608
 C     1.828017     3.960873     0.660132
 H     1.388697     4.890471     0.295556
 C     2.650006     3.989490     1.777300
 F     2.894374     5.148263     2.379455
