  54
scf done:    -2821.560464
 C     1.626745    -3.651888     0.213393
 H     1.362568    -4.300886    -0.627124
 H     2.700363    -3.466533     0.301882
 C     0.812432    -3.670061     1.393389
 H    -0.057112    -4.333492     1.434580
 H     1.290544    -3.512921     2.364466
 H     1.719095    -1.273930     1.235186
Ir     0.490456    -1.819062     0.297195
 C     1.980734     1.199489    -0.749387
 O     2.983833    -1.130297    -1.699697
 O     0.830327    -0.115066    -2.672762
 C    -2.242215     0.411608     0.559822
 O    -1.460451    -0.566124     2.837561
 O     0.119216     1.099423     1.701167
 P    -0.757466    -0.248317     1.384914
 P     1.546167    -0.498690    -1.232946
 C    -0.989776    -2.574648    -0.674714
 O    -1.888180    -3.045447    -1.211189
 C     1.398223     2.322785    -1.341139
 H     0.738054     2.195463    -2.200501
 C     2.845106     1.368278     0.338164
 H     3.290481     0.492972     0.817328
 C     1.649109     3.597357    -0.838844
 H     1.186244     4.478441    -1.286191
 C     3.115421     2.635042     0.838942
 H     3.782111     2.772246     1.691625
 C     2.500107     3.742546     0.254386
Cl     2.782702     5.319259     0.914200
 C     3.830678    -0.439075    -2.596298
 H     3.302465    -0.178404    -3.527326
 H     4.224043     0.486446    -2.144354
 H     4.668609    -1.108946    -2.831193
 C     0.128529    -1.107103    -3.392845
 H     0.620440    -2.090512    -3.322709
 H    -0.906190    -1.202413    -3.027839
 H     0.107362    -0.795184    -4.446273
 C    -3.481034     0.526929     1.197481
 H    -3.578700     0.201090     2.234328
 C    -2.118634     0.819847    -0.773943
 H    -1.159092     0.717439    -1.286896
 C    -4.580175     1.045391     0.518162
 H    -5.551613     1.133378     1.007413
 C    -3.206790     1.347873    -1.459761
 H    -3.114827     1.669183    -2.498418
 C    -4.434755     1.456088    -0.806195
Cl    -5.796956     2.103414    -1.654686
 C    -0.741360    -1.294969     3.811167
 H    -0.281200    -2.190892     3.365953
 H     0.050490    -0.676096     4.264688
 H    -1.455105    -1.593015     4.590919
 C    -0.456558     2.261930     2.254428
 H    -1.191421     2.711404     1.565945
 H    -0.953327     2.049054     3.215011
 H     0.359743     2.979140     2.416352
