  96
scf done:    -2976.564647
 C     0.065253    -3.063285    -2.133137
 H    -0.164567    -4.004108    -1.623714
 H    -0.667385    -2.787592    -2.896270
 C     1.430591    -2.661329    -2.285776
 H     2.230713    -3.293923    -1.889079
 H     1.727483    -2.083423    -3.164332
 H     0.078333    -0.511641    -2.086746
Ir     0.470715    -1.420292    -0.790013
 O    -1.887127     0.853666    -0.299502
 O    -2.802524    -1.498362    -0.777998
 O    -1.971697    -0.813936     1.542650
 O     3.442092    -0.308752     0.217265
 O     2.391290     1.438289    -1.142918
 O     1.572546     0.988252     1.230368
 P     1.921073     0.203247    -0.162278
 P    -1.546253    -0.723241    -0.054361
 C     1.014699    -2.641044     0.621862
 O     1.396825    -3.394288     1.391919
 C    -2.931594     1.647741     0.124551
 C    -3.136443     1.916706     1.476214
 H    -2.487996     1.455934     2.218996
 C    -3.732898     2.235683    -0.851401
 H    -3.541950     2.009585    -1.901158
 C    -4.182625     2.759165     1.846734
 H    -4.351235     2.966309     2.906234
 C    -4.774834     3.074090    -0.467689
 H    -5.413272     3.521377    -1.232840
 C    -5.007393     3.335481     0.882313
 H    -5.827998     3.991014     1.181484
 C    -4.098558    -1.043374    -0.892806
 C    -4.915122    -0.902877     0.225484
 H    -4.516855    -1.138776     1.212950
 C    -4.549387    -0.750018    -2.186696
 C    -3.622832    -0.906603    -3.352796
 H    -2.719093    -0.288378    -3.228369
 H    -3.271090    -1.946001    -3.443078
 H    -4.115125    -0.620534    -4.291930
 C    -6.214856    -0.429750     0.063148
 H    -6.855002    -0.298851     0.938126
 C    -5.862192    -0.291192    -2.320273
 H    -6.237189    -0.052243    -3.319260
 C    -6.688811    -0.122782    -1.210212
 H    -7.707495     0.248612    -1.341742
 C    -1.603316    -1.890541     2.316489
 C    -2.006881    -3.179473     1.972194
 H    -2.609104    -3.328809     1.073949
 C    -0.822806    -1.633274     3.452558
 C    -0.396892    -0.235288     3.779099
 H    -1.267129     0.404411     3.997241
 H     0.261691    -0.220896     4.657738
 H     0.140320     0.222561     2.935196
 C    -1.623380    -4.253118     2.772493
 H    -1.929885    -5.266050     2.502630
 C    -0.460564    -2.730304     4.238611
 H     0.152864    -2.557729     5.126931
 C    -0.848366    -4.027790     3.906939
 H    -0.539522    -4.865054     4.536503
 C     4.113836    -1.236274    -0.540922
 C     4.491163    -2.432085     0.065833
 H     4.223912    -2.604605     1.109716
 C     4.423994    -0.981216    -1.876255
 H     4.117194    -0.034332    -2.323614
 C     5.183006    -3.386287    -0.676970
 H     5.476270    -4.326759    -0.204617
 C     5.110857    -1.945554    -2.609984
 H     5.349739    -1.752519    -3.658464
 C     5.490908    -3.149050    -2.016461
 H     6.027603    -3.901989    -2.597599
 C     1.680539     2.568451    -1.483159
 C     0.345457     2.514091    -1.870529
 H    -0.173884     1.557431    -1.882595
 C     2.391603     3.778211    -1.443726
 C     3.828271     3.798571    -1.026439
 H     3.939452     3.467841     0.017742
 H     4.430693     3.111270    -1.639963
 H     4.248539     4.809248    -1.115639
 C    -0.319001     3.691559    -2.208425
 H    -1.372515     3.650274    -2.493174
 C     1.699995     4.940292    -1.795246
 H     2.234229     5.893869    -1.767454
 C     0.356693     4.907958    -2.170562
 H    -0.158881     5.834286    -2.433567
 C     2.245402     2.065133     1.778622
 C     3.552544     1.910454     2.242048
 H     4.039449     0.942534     2.130070
 C     1.552951     3.276941     1.904838
 C     0.137564     3.436924     1.442699
 H     0.073364     4.178080     0.631261
 H    -0.274779     2.496553     1.063021
 H    -0.503668     3.790131     2.264889
 C     4.208891     2.992296     2.820336
 H     5.234350     2.874682     3.177658
 C     2.242966     4.346086     2.490111
 H     1.725960     5.304360     2.591304
 C     3.553577     4.217419     2.939432
 H     4.062795     5.072851     3.389059
