 110
scf done:    -3283.938743
 C     0.153840    -2.518911    -2.740454
 H     0.572971    -2.124043    -3.671322
 H     0.747973    -3.327362    -2.306225
 C    -1.267993    -2.517794    -2.549868
 H    -1.915602    -2.119413    -3.336909
 H    -1.733420    -3.316626    -1.966779
 H    -0.259763    -2.206870    -0.198317
Ir    -0.367286    -1.001934    -1.297677
 C     3.215371    -0.888502    -0.843844
 O     1.679220     1.401260    -0.868042
 O     1.670504    -0.143548     1.254338
 C    -1.605944     1.026407     1.418785
 O    -3.166513     0.609264    -0.775867
 O    -2.878386    -1.273615     0.927814
 P    -1.973732    -0.171941     0.081752
 P     1.576960    -0.175172    -0.404453
 C    -0.554353     0.407622    -2.598834
 O    -0.684430     1.277970    -3.335392
 C     3.312451    -2.287603    -0.694063
 O     2.289181    -2.856541    -0.041969
 C     2.139754    -4.248775    -0.022291
 H     2.903618    -4.727383     0.614315
 H     1.142882    -4.444203     0.393673
 H     2.189751    -4.675555    -1.037840
 C     4.328843    -0.206107    -1.373399
 O     4.289986     1.138062    -1.365175
 C     5.408752     1.875293    -1.776984
 H     5.150018     2.929984    -1.618988
 H     5.635484     1.713763    -2.844688
 H     6.300321     1.625413    -1.176904
 C     5.440647    -0.916514    -1.844907
 H     6.292794    -0.390449    -2.272121
 C     4.417007    -3.003545    -1.163277
 H     4.470218    -4.085672    -1.051528
 C     5.464101    -2.302998    -1.748801
 H     6.335147    -2.849047    -2.118636
 C     2.086119     2.595658    -0.374241
 C     2.091603     2.898113     0.986426
 H     1.775877     2.146182     1.707078
 C     2.406326     3.571831    -1.338104
 C     2.299476     3.241609    -2.793929
 H     2.670813     4.066991    -3.416990
 H     2.860575     2.326259    -3.030730
 H     1.254671     3.035159    -3.075107
 C     2.465523     4.174031     1.407197
 H     2.467178     4.401520     2.475797
 C     2.773643     4.840085    -0.884604
 H     3.024544     5.606863    -1.623290
 C     2.815114     5.147781     0.476997
 H     3.107541     6.147918     0.804315
 C     2.769793    -0.397813     2.034588
 C     3.958692     0.313521     1.884067
 H     4.037509     1.077718     1.110201
 C     2.627591    -1.385107     3.021877
 C     1.346737    -2.147751     3.132201
 H     0.478024    -1.476081     3.122437
 H     1.222235    -2.804150     2.258696
 H     1.324570    -2.763769     4.041797
 C     5.036359     0.041131     2.724434
 H     5.968436     0.597564     2.601780
 C     3.720675    -1.629080     3.857003
 H     3.625892    -2.392942     4.633935
 C     4.918717    -0.929750     3.714973
 H     5.758627    -1.144536     4.379572
 C    -1.521945     0.733956     2.796531
 O    -1.724585    -0.538592     3.182624
 C    -1.817064    -0.838582     4.546792
 H    -2.061439    -1.906132     4.612043
 H    -0.864413    -0.661530     5.075635
 H    -2.615444    -0.256123     5.037529
 C    -1.309211     2.344174     1.003508
 O    -1.301599     2.556561    -0.322091
 C    -1.123688     3.859054    -0.818028
 H    -1.120701     3.770608    -1.910706
 H    -0.163184     4.289483    -0.493217
 H    -1.955561     4.514287    -0.508711
 C    -1.043391     3.357488     1.929414
 H    -0.835814     4.372371     1.597115
 C    -1.231238     1.744920     3.721811
 H    -1.174352     1.520315     4.785309
 C    -1.011127     3.043401     3.279954
 H    -0.793931     3.827841     4.008766
 C    -4.104504     1.477134    -0.291011
 C    -4.645957     1.362547     0.989978
 H    -4.330681     0.541737     1.634353
 C    -4.521235     2.488978    -1.172760
 C    -3.978958     2.537327    -2.567217
 H    -2.888763     2.410567    -2.578774
 H    -4.386301     1.711454    -3.173396
 H    -4.241111     3.482739    -3.062218
 C    -5.588230     2.292861     1.424209
 H    -6.005249     2.204729     2.430127
 C    -5.467122     3.405895    -0.707856
 H    -5.796486     4.203565    -1.379792
 C    -5.995012     3.322429     0.580403
 H    -6.730410     4.055919     0.918531
 C    -3.316011    -2.428606     0.325812
 C    -4.231137    -2.374049    -0.724484
 H    -4.571913    -1.401250    -1.079283
 C    -2.838253    -3.652146     0.817095
 C    -1.873672    -3.684214     1.959903
 H    -1.074908    -2.945041     1.817295
 H    -2.378957    -3.426677     2.904592
 H    -1.429013    -4.682961     2.073495
 C    -4.678857    -3.553559    -1.313343
 H    -5.390448    -3.508198    -2.140860
 C    -3.304302    -4.820578     0.206662
 H    -2.937707    -5.784175     0.571715
 C    -4.211814    -4.781397    -0.850561
 H    -4.553211    -5.710938    -1.311625
