  56
scf done:    -2053.017110
 C     2.207924    -3.138637    -0.784499
 H     2.431547    -3.815375     0.046014
 H     1.598501    -3.596386    -1.568205
 C     3.162833    -2.125038    -1.135813
 H     4.095051    -2.060965    -0.564376
 H     3.272562    -1.834576    -2.184401
 H     0.844668    -1.189663    -1.710027
Ir     1.436508    -1.218883    -0.189740
 O    -1.697718    -0.352262    -0.392064
 O    -1.440254    -2.899729    -0.253353
 O    -1.322171    -1.587948     1.813852
 O     0.467360     1.786043     0.781897
 O     2.759636     1.939511    -0.093046
 O     0.865062     1.624832    -1.765512
 P     1.408890     1.043395    -0.356063
 P    -0.751863    -1.541515     0.283962
 C     2.227761    -1.324137     1.571938
 O     2.715112    -1.391761     2.607439
 C    -3.063878    -0.423705    -0.446724
 C    -3.832595     0.079673     0.603473
 H    -3.332704     0.512087     1.471686
 C    -3.673416    -0.972783    -1.575542
 H    -3.041801    -1.355914    -2.378582
 C    -5.222711     0.022115     0.522693
 H    -5.826647     0.415621     1.343865
 C    -5.063145    -1.026972    -1.644444
 H    -5.542582    -1.458480    -2.526424
 C    -5.841735    -0.533388    -0.596697
 H    -6.931459    -0.577775    -0.655025
 C    -2.494141    -3.602781     0.385123
 H    -2.187718    -3.941494     1.384958
 H    -3.399857    -2.985479     0.477635
 H    -2.712970    -4.472746    -0.247863
 C    -0.855917    -0.669729     2.786476
 H    -1.703166    -0.416865     3.439767
 H    -0.063842    -1.131438     3.395641
 H    -0.463546     0.251059     2.327196
 C    -0.086416     3.033069     0.640450
 C    -1.392174     3.133584     0.160967
 H    -1.918382     2.219704    -0.118544
 C     0.639046     4.168727     0.997138
 H     1.659963     4.048671     1.362772
 C    -1.973849     4.392634     0.031550
 H    -2.995422     4.476624    -0.346947
 C     0.045593     5.422615     0.862642
 H     0.608509     6.317587     1.138778
 C    -1.257952     5.539088     0.379311
 H    -1.717373     6.524619     0.275710
 C     4.003471     1.507685    -0.607678
 H     4.079295     0.408414    -0.576277
 H     4.139673     1.843508    -1.649307
 H     4.792445     1.949133     0.016139
 C     1.082349     2.927132    -2.279866
 H     0.175348     3.536645    -2.156745
 H     1.919381     3.428093    -1.772037
 H     1.311515     2.826778    -3.350578
