  64
scf done:    -1909.377541
 C     2.674091    -2.903915    -0.479349
 H     3.003500    -3.446540     0.413157
 H     2.180590    -3.546358    -1.215769
 C     3.467868    -1.794694    -0.949087
 H     4.376461    -1.527796    -0.398660
 H     3.552277    -1.624445    -2.026586
 H     1.036317    -1.284243    -1.622290
Ir     1.625645    -1.064624    -0.101659
 O    -1.624896    -0.534680    -0.273747
 C    -1.066115    -3.260729    -0.193313
 C    -1.089046    -1.626407     2.187936
 O     0.433866     1.873363     0.792846
 C     2.749722     2.296231    -0.532319
 C     0.350682     1.592490    -2.004923
 P     1.290931     1.183121    -0.481228
 P    -0.533334    -1.616117     0.439721
 C     2.394875    -0.824769     1.637263
 O     2.872623    -0.669521     2.671062
 C    -2.953975    -0.763157    -0.470382
 C    -3.883840    -0.473654     0.532221
 H    -3.535699    -0.078907     1.488130
 C    -3.386947    -1.230259    -1.714193
 H    -2.643827    -1.422481    -2.490567
 C    -5.240829    -0.686614     0.296009
 H    -5.964827    -0.462712     1.083168
 C    -4.744683    -1.440689    -1.939628
 H    -5.078618    -1.811559    -2.911662
 C    -5.675912    -1.177285    -0.934487
 H    -6.740053    -1.344574    -1.113878
 H    -0.177684    -3.889974    -0.020074
 C    -2.319360    -3.928974     0.353529
 H    -3.222476    -3.320546     0.206050
 H    -2.228384    -4.146182     1.427997
 H    -1.113233    -3.133618    -1.287531
 H    -2.482967    -4.890484    -0.157349
 H    -0.489929    -2.422593     2.663941
 C    -0.901357    -0.299953     2.906321
 H    -1.480123     0.503575     2.428219
 H     0.147756     0.023343     2.897451
 H    -2.140272    -1.954577     2.227154
 H    -1.227272    -0.379926     3.954256
 C    -0.367962     2.972054     0.728601
 C    -1.710350     2.822824     0.369288
 H    -2.075435     1.825333     0.122080
 C     0.133365     4.230088     1.070595
 H     1.177737     4.319977     1.375368
 C    -2.539510     3.940477     0.324554
 H    -3.586836     3.820091     0.036825
 C    -0.705662     5.341932     1.023451
 H    -0.311055     6.325963     1.288316
 C    -2.040882     5.203927     0.644315
 H    -2.693859     6.078585     0.606708
 H     3.211963     2.202659     0.463879
 C     3.736513     1.915794    -1.625220
 H     3.303607     2.042198    -2.629873
 H     4.037809     0.862778    -1.523573
 H     2.405647     3.338693    -0.635307
 H     4.639827     2.541908    -1.573428
 H    -0.653166     1.173431    -1.829314
 C     0.304271     3.029595    -2.501468
 H     1.307864     3.412508    -2.739930
 H    -0.153538     3.713238    -1.773858
 H     0.808336     0.928985    -2.756630
 H    -0.291520     3.086077    -3.425688
