  52
scf done:    -1752.258650
 C    -3.928580     1.021323    -0.374735
 H    -4.462741     1.226879     0.558870
 H    -3.929126     1.869316    -1.066512
 C    -3.961160    -0.316939    -0.912185
 H    -4.518408    -1.089279    -0.371723
 H    -3.982458    -0.450838    -1.997762
 H    -1.714614     0.716507    -1.640484
Ir    -1.995539     0.105992    -0.140162
 O     0.959092     1.494812    -0.472256
 C    -0.840658     3.427413     0.221312
 C     0.198066     1.633500     2.168530
 O     0.775316    -1.581646     0.417481
 C    -1.010227    -3.250661    -0.796433
 C     0.390105    -1.288377    -2.301160
 P    -0.473577    -1.508960    -0.716065
 P    -0.435487     1.667135     0.459756
 C    -2.377944    -0.609151     1.599338
 O    -2.587278    -1.041847     2.642914
 C     2.111551     2.198789    -0.275728
 C     3.084888     1.712119     0.601593
 H     2.892634     0.784548     1.143358
 C     2.344318     3.369532    -1.001511
 H     1.580871     3.719249    -1.698960
 C     4.283105     2.405732     0.756496
 H     5.042447     2.019996     1.441005
 C     3.545814     4.056253    -0.838874
 H     3.725396     4.970117    -1.410363
 C     4.516932     3.580343     0.041692
 H     5.457869     4.120727     0.165615
 H    -1.703689     3.658073     0.863112
 H    -0.001937     4.093668     0.473573
 H    -1.144218     3.577992    -0.823995
 H     0.582843     0.624354     2.372919
 H     0.981233     2.383011     2.354194
 H    -0.655973     1.820283     2.836668
 C     1.897297    -2.346752     0.281374
 C     3.010824    -1.840088    -0.394980
 H     2.955045    -0.842430    -0.833235
 C     1.952241    -3.611510     0.872202
 H     1.079420    -3.978993     1.415228
 C     4.171242    -2.605589    -0.484619
 H     5.040153    -2.203769    -1.011464
 C     3.117596    -4.369471     0.776682
 H     3.157583    -5.356827     1.243136
 C     4.228816    -3.872396     0.096188
 H     5.140815    -4.468954     0.024326
 H    -0.184476    -3.936433    -1.040014
 H    -1.458078    -3.531216     0.167382
 H    -1.790420    -3.320970    -1.568630
 H     0.837267    -0.285114    -2.304781
 H     1.156097    -2.056971    -2.479223
 H    -0.373417    -1.331875    -3.091372
