 106
scf done:    -2459.332645
 C    -1.069087    -2.754846    -2.393509
 H    -1.684595    -3.557466    -1.974053
 H    -1.557435    -2.206390    -3.204395
 C     0.360249    -2.918473    -2.420714
 H     0.795432    -3.841059    -2.022323
 H     0.924302    -2.501643    -3.261060
 H    -0.066786    -0.387494    -2.183278
Ir    -0.168060    -1.446802    -0.933796
 O    -2.593628     0.660302    -1.608581
 C    -3.358085    -1.024847     0.471440
 C    -1.640253     1.261529     0.887601
 O     1.479904     1.135183     0.386638
 C     2.803335    -1.195917     0.959338
 C     2.922175    -0.001942    -1.678413
 P     1.754757    -0.384501    -0.310495
 P    -1.937033    -0.122224    -0.276043
 C    -0.257761    -2.682794     0.527040
 O    -0.297713    -3.393328     1.432442
 C    -3.851458     1.184815    -1.641036
 C    -4.087901     2.501120    -1.243149
 H    -3.247051     3.119458    -0.924154
 C    -4.913429     0.403637    -2.103240
 H    -4.708789    -0.610113    -2.452959
 C    -5.387109     3.004469    -1.250565
 H    -5.561623     4.034483    -0.927271
 C    -6.205182     0.918387    -2.102496
 H    -7.029373     0.291935    -2.455479
 C    -6.471814     2.221083    -1.659830
 C    -7.876955     2.748560    -1.619246
 H    -7.894221     3.844667    -1.538857
 H    -8.426644     2.345156    -0.752282
 H    -8.441074     2.464517    -2.520370
 H    -3.790080    -1.606930    -0.360156
 H    -2.895437    -1.775433     1.134153
 C    -4.435051    -0.241551     1.215394
 H    -4.025867     0.134905     2.168422
 H    -4.734028     0.648958     0.642775
 C    -5.679865    -1.072942     1.490567
 H    -5.414838    -1.958527     2.096710
 H    -6.063646    -1.467051     0.531886
 C    -6.783588    -0.285744     2.182579
 H    -6.399951     0.116445     3.137108
 H    -7.029785     0.596130     1.564287
 C    -8.040546    -1.101257     2.437838
 H    -8.820010    -0.504107     2.935131
 H    -7.829420    -1.972170     3.079127
 H    -8.465145    -1.484168     1.495692
 H    -0.921588     1.916715     0.370927
 H    -2.570732     1.828185     1.051449
 C    -1.037076     0.777313     2.199611
 H    -1.791088     0.226091     2.789160
 H    -0.236626     0.055154     1.968695
 C    -0.450430     1.904443     3.036005
 H    -1.248526     2.610138     3.330470
 H     0.249300     2.481533     2.407504
 C     0.283642     1.416337     4.276188
 H    -0.414907     0.855705     4.922442
 H     1.051701     0.683728     3.967991
 C     0.936133     2.537505     5.068502
 H     1.463463     2.157585     5.956904
 H     0.188602     3.269805     5.413759
 H     1.667674     3.083453     4.450740
 C     2.415559     2.109235     0.565441
 C     2.575423     3.100070    -0.406403
 H     1.941488     3.075012    -1.294920
 C     3.185019     2.157084     1.729033
 H     3.026838     1.405966     2.504745
 C     3.536456     4.090685    -0.236232
 H     3.658067     4.854014    -1.010045
 C     4.141587     3.157784     1.887318
 H     4.742033     3.180588     2.800981
 C     4.349225     4.132041     0.904713
 C     5.411417     5.182045     1.056633
 H     5.751518     5.263910     2.098622
 H     5.049653     6.171177     0.737851
 H     6.293681     4.945090     0.438763
 H     3.663585    -0.553444     1.206699
 H     2.171928    -1.260132     1.862144
 C     3.261900    -2.586623     0.537354
 H     2.403035    -3.147942     0.132641
 H     3.980618    -2.504491    -0.296639
 C     3.893468    -3.375259     1.675464
 H     3.160745    -3.466216     2.497720
 H     4.746344    -2.808310     2.091749
 C     4.359739    -4.763605     1.261060
 H     3.502255    -5.319160     0.842316
 H     5.086638    -4.669963     0.434662
 C     4.978163    -5.557607     2.400142
 H     5.303553    -6.555908     2.070497
 H     4.260225    -5.697302     3.224301
 H     5.858543    -5.041298     2.816019
 H     2.868038    -0.881527    -2.340733
 H     2.432270     0.809470    -2.242718
 C     4.368835     0.348241    -1.345347
 H     4.416342     1.054847    -0.503073
 H     4.901405    -0.557791    -1.009509
 C     5.109349     0.962174    -2.524960
 H     4.555623     1.855635    -2.866768
 H     5.104143     0.259689    -3.378259
 C     6.540470     1.359728    -2.192768
 H     6.524436     2.057424    -1.336242
 H     7.093361     0.469812    -1.842884
 C     7.278233     1.995812    -3.359519
 H     8.307522     2.275060    -3.087548
 H     6.766018     2.908422    -3.704905
 H     7.336427     1.308441    -4.218810
