 108
scf done:    -2761.074892
 C    -0.292813     3.160085    -1.826178
 H    -0.923708     3.187489    -2.721752
 H    -0.620148     3.861446    -1.051277
 C     1.115047     2.906356    -1.985482
 H     1.509333     2.733546    -2.992588
 H     1.823423     3.404990    -1.318085
 H     0.462659     2.029484     0.296535
Ir     0.174122     1.198090    -1.075452
 C    -0.980835     0.143580     1.969494
 C    -3.116045     1.427157     0.328169
 C    -2.277558    -1.259219    -0.245429
 C     1.706781    -1.902787    -0.015574
 C     3.323787    -0.264521    -1.675627
 C     2.902379     0.614308     1.088893
 P     1.994201    -0.098097    -0.367688
 P    -1.573343     0.378431     0.238026
 C    -0.256128     0.323909    -2.722105
 O    -0.555311    -0.191389    -3.708808
 C    -0.505481    -1.128166     2.324698
 H    -0.613072    -1.964955     1.634523
 C    -0.824188     1.210577     2.883556
 C    -1.274582     2.611792     2.589509
 H    -2.370123     2.704233     2.623127
 H    -0.938641     2.930335     1.589984
 H    -0.863207     3.312700     3.328051
 C     0.112858    -1.361827     3.549057
 H     0.471327    -2.365667     3.787906
 C    -0.202003     0.951416     4.111941
 H    -0.079426     1.777976     4.817499
 C     0.267603    -0.314001     4.451918
 H     0.751355    -0.477704     5.417674
 H    -3.650075     1.213233     1.265135
 H    -2.774379     2.470262     0.350411
 C    -4.019299     1.196833    -0.850720
 C    -3.612944     1.547023    -2.145960
 H    -2.635291     2.009456    -2.290666
 C    -5.273000     0.606422    -0.676570
 H    -5.590862     0.319335     0.330169
 C    -4.443328     1.287440    -3.230938
 H    -4.115025     1.553445    -4.238688
 C    -6.125948     0.350885    -1.756769
 C    -7.467983    -0.279348    -1.523651
 H    -7.370805    -1.195715    -0.920957
 H    -8.136515     0.401074    -0.971408
 H    -7.962761    -0.538856    -2.470259
 C    -5.690136     0.691852    -3.039922
 H    -6.336641     0.492027    -3.899052
 H    -2.463773    -1.146729    -1.325020
 H    -1.447192    -1.978656    -0.175241
 C    -3.514977    -1.802924     0.418217
 C    -4.410527    -2.554213    -0.356009
 H    -4.205837    -2.702637    -1.419381
 C    -3.812508    -1.608252     1.768957
 H    -3.129185    -1.030062     2.393718
 C    -5.560541    -3.089805     0.211466
 H    -6.247362    -3.676143    -0.404245
 C    -4.974080    -2.128514     2.355132
 C    -5.264054    -1.866926     3.805323
 H    -5.536681    -0.811625     3.971089
 H    -6.095473    -2.486160     4.170300
 H    -4.382504    -2.072349     4.431731
 C    -5.846145    -2.875574     1.560193
 H    -6.755494    -3.294181     1.999987
 C     0.821371    -2.472057    -0.943831
 H     0.379620    -1.825995    -1.704621
 C     2.292556    -2.745104     0.958776
 C     3.327585    -2.317595     1.958172
 H     2.949980    -1.551229     2.648569
 H     4.222200    -1.919927     1.457031
 H     3.645750    -3.179131     2.560244
 C     0.480729    -3.820679    -0.925814
 H    -0.210707    -4.219247    -1.671591
 C     1.905519    -4.093911     0.983948
 H     2.341788    -4.740120     1.750528
 C     1.014103    -4.637916     0.065185
 H     0.747003    -5.695846     0.120625
 H     2.782906    -0.611933    -2.568744
 H     3.660642     0.760337    -1.889944
 C     4.446433    -1.190308    -1.320652
 C     5.620445    -0.729536    -0.706750
 H     5.771876     0.339998    -0.549181
 C     4.311632    -2.566920    -1.534539
 H     3.407013    -2.940809    -2.021563
 C     6.604785    -1.625924    -0.299946
 H     7.515536    -1.252101     0.174180
 C     5.282420    -3.483785    -1.119635
 C     5.063704    -4.953704    -1.329011
 H     4.172950    -5.294893    -0.777029
 H     4.890865    -5.184507    -2.391865
 H     5.925068    -5.545045    -0.988370
 C     6.433269    -2.995578    -0.492919
 H     7.205515    -3.694824    -0.161155
 H     2.281964     0.364083     1.962028
 H     3.865640     0.098405     1.190765
 C     3.109437     2.100106     1.023993
 C     4.095491     2.674909     0.213812
 H     4.750501     2.041924    -0.385455
 C     2.307179     2.949706     1.790473
 H     1.551229     2.503852     2.440990
 C     4.251763     4.057098     0.161958
 H     5.025282     4.491657    -0.475682
 C     2.441443     4.340724     1.745708
 C     1.527492     5.220389     2.548489
 H     1.351033     4.807521     3.553157
 H     1.937931     6.233667     2.662534
 H     0.544469     5.314208     2.057880
 C     3.426201     4.886804     0.916251
 H     3.550822     5.971897     0.867114
