 100
scf done:    -2904.588374
 C     0.820197     2.747791    -1.993155
 H     1.503400     3.487646    -1.562029
 H     1.235338     2.239646    -2.868700
 C    -0.597716     2.976395    -1.906744
 H    -0.948226     3.899281    -1.429934
 H    -1.247254     2.637437    -2.718427
 H    -0.254723     0.471233    -1.911348
Ir    -0.024931     1.383128    -0.574457
 C     1.467537    -1.837991    -0.743780
 C     3.185022     0.428750    -1.236343
 C     2.507632    -0.260236     1.457142
 C    -1.641214    -0.450281     1.958893
 C    -3.445405     1.169164     0.444382
 C    -2.435391    -1.217028    -0.745327
 P    -1.884186     0.219098     0.265453
 P     1.753676    -0.098963    -0.213187
 C     0.251696     2.592018     0.881610
 O     0.441033     3.376763     1.703089
 C     1.782047    -2.935075     0.065782
 H     2.252159    -2.783693     1.037381
 C     0.849499    -2.068519    -1.978642
 H     0.559826    -1.210838    -2.591061
 C     1.471967    -4.225512    -0.356898
 H     1.702837    -5.075487     0.290605
 C     0.568171    -3.360009    -2.433044
 C    -0.036851    -3.573442    -3.789398
 H    -0.710369    -2.747350    -4.056174
 H     0.746778    -3.631934    -4.563633
 H    -0.613975    -4.508121    -3.830072
 C     0.876872    -4.438678    -1.597472
 H     0.640221    -5.456092    -1.921315
 C     3.631783    -0.263195    -2.358931
 H     3.167343    -1.217184    -2.615387
 C     3.810327     1.646964    -0.897782
 O     3.349569     2.254234     0.210677
 C     3.830727     3.515036     0.575475
 H     4.903116     3.483354     0.837391
 H     3.252184     3.821632     1.455708
 H     3.679041     4.256108    -0.228949
 C     4.666894     0.236556    -3.151472
 H     4.998737    -0.321200    -4.029864
 C     4.847915     2.150368    -1.686257
 H     5.330249     3.093223    -1.426767
 C     5.270560     1.442298    -2.811945
 H     6.081682     1.844923    -3.423598
 C     1.852193     0.286139     2.558486
 H     0.875841     0.746418     2.407223
 C     3.774630    -0.854168     1.654186
 O     4.365860    -1.379946     0.568416
 C     5.669545    -1.877446     0.646783
 H     6.377091    -1.109981     1.005385
 H     5.948760    -2.170044    -0.373191
 H     5.734199    -2.761449     1.305748
 C     2.411405     0.251068     3.835282
 H     1.866769     0.679461     4.678384
 C     4.345493    -0.886087     2.931157
 H     5.323635    -1.341821     3.086871
 C     3.659671    -0.334177     4.013761
 H     4.116314    -0.367268     5.006252
 C    -2.235121     0.161098     3.068956
 H    -2.941025     0.982416     2.929935
 C    -0.719494    -1.480914     2.170364
 H    -0.205241    -1.926995     1.316946
 C    -1.917737    -0.273181     4.353513
 H    -2.383636     0.209706     5.216376
 C    -0.401436    -1.936277     3.453586
 C     0.632954    -3.006605     3.640724
 H     0.548383    -3.788487     2.871847
 H     1.644815    -2.573257     3.561218
 H     0.551409    -3.480782     4.629220
 C    -1.017031    -1.318910     4.546672
 H    -0.777041    -1.652768     5.560018
 C    -3.454805     2.528453     0.143556
 H    -2.514751     2.975703    -0.187553
 C    -4.647556     0.551794     0.852634
 O    -4.577530    -0.756477     1.149932
 C    -5.730129    -1.453249     1.522074
 H    -6.159104    -1.064125     2.462270
 H    -5.425260    -2.496377     1.673261
 H    -6.501984    -1.417365     0.733546
 C    -4.622857     3.285333     0.239157
 H    -4.608007     4.350463    -0.000336
 C    -5.823315     1.304230     0.943180
 H    -6.756975     0.836509     1.256790
 C    -5.802648     2.665280     0.635999
 H    -6.728447     3.241315     0.712785
 C    -2.407846    -2.542239    -0.318342
 H    -2.084722    -2.769774     0.697101
 C    -2.910849    -0.941803    -2.046627
 O    -2.976031     0.355000    -2.390005
 C    -3.409163     0.720846    -3.666369
 H    -2.751061     0.313351    -4.453825
 H    -3.373042     1.816730    -3.703618
 H    -4.445518     0.390601    -3.857531
 C    -2.799831    -3.586886    -1.156295
 H    -2.754743    -4.616853    -0.796861
 C    -3.308737    -1.984564    -2.889096
 H    -3.675402    -1.771666    -3.893543
 C    -3.247396    -3.303912    -2.440706
 H    -3.558781    -4.110931    -3.108605
