  60
scf done:    -1981.169902
 C     0.724818    -2.818274     0.981862
 H     1.788494    -3.055696     0.879224
 H     0.433698    -2.592541     2.011777
 C    -0.227469    -3.473967     0.125866
 H     0.122894    -4.205943    -0.608354
 H    -1.228979    -3.699508     0.505023
 H    -1.064982    -1.136124    -1.780731
Ir    -0.011904    -1.418398    -0.536769
 C    -2.636287     0.785402     0.313237
 O    -3.148299    -1.899274     0.243331
 O    -1.994331    -0.997126     2.227572
 C     2.680375     0.808363     0.001093
 O     0.651684     1.672730    -1.544391
 O     0.273772     1.457378     1.036807
 P     0.881312     0.652030    -0.269585
 P    -1.934144    -0.878190     0.588100
 C     1.198993    -1.945280    -1.890181
 O     1.898300    -2.246412    -2.749887
 C    -3.298823     1.462325     1.344435
 H    -3.421861     0.982186     2.317454
 C    -2.474501     1.404729    -0.927767
 H    -1.932369     0.876232    -1.716072
 C    -3.783157     2.748996     1.122970
 H    -4.296492     3.283412     1.926258
 C    -2.952743     2.698596    -1.160877
 C    -2.763458     3.339555    -2.504655
 H    -1.779989     3.082990    -2.925180
 H    -3.523268     2.984943    -3.220497
 H    -2.847667     4.434408    -2.449097
 C    -3.607110     3.362376    -0.116696
 H    -3.980552     4.378026    -0.276218
 C    -4.415226    -1.804123     0.859692
 H    -4.339198    -1.953275     1.947607
 H    -4.887849    -0.827544     0.660234
 H    -5.040008    -2.596272     0.426466
 C    -0.989952    -0.468573     3.065810
 H    -1.031622    -1.022248     4.014325
 H     0.007175    -0.580144     2.614535
 H    -1.162935     0.602616     3.259974
 C     3.558993     0.564640    -1.062326
 H     3.170127     0.356344    -2.062640
 C     3.193645     1.055621     1.277052
 H     2.499650     1.226932     2.104361
 C     4.931801     0.584911    -0.838681
 H     5.620136     0.399237    -1.666745
 C     4.572356     1.074194     1.515014
 C     5.109751     1.305689     2.897435
 H     6.083169     1.816782     2.872802
 H     4.418982     1.909626     3.503223
 H     5.256163     0.348255     3.424787
 C     5.433290     0.839977     0.436926
 H     6.514468     0.853583     0.600516
 C     1.335227     2.874855    -1.822400
 H     0.657381     3.731472    -1.680752
 H     2.225173     3.011571    -1.187688
 H     1.661410     2.854610    -2.873377
 C     0.209854     2.858534     1.151771
 H     1.201842     3.330552     1.046733
 H    -0.483311     3.281016     0.407027
 H    -0.181906     3.083914     2.153591
