 110
scf done:    -3283.778718
 C     0.520129    -2.268003    -2.821674
 H     0.926122    -1.953210    -3.789155
 H     1.144689    -3.010625    -2.315879
 C    -0.907254    -2.294500    -2.643327
 H    -1.553176    -1.998698    -3.477125
 H    -1.355684    -3.059899    -2.002437
 H     0.084099    -1.840495    -0.392628
Ir    -0.062631    -0.673513    -1.511876
 C     1.843446    -0.386542     1.394409
 C     3.415959    -0.733970    -1.107071
 C     2.414140     1.797392    -0.513869
 C    -1.806999     1.458182     0.929942
 C    -3.469509     0.356853    -1.000221
 C    -2.253111    -1.531269     0.895254
 P    -1.888689    -0.056084    -0.148471
 P     1.883408     0.031372    -0.391949
 C    -0.201606     0.582443    -2.946215
 O    -0.288863     1.280346    -3.862826
 C     1.617180     0.570895     2.396847
 O     1.440929     1.840690     1.995855
 C     1.645397     2.893196     2.892820
 H     1.623386     3.812602     2.293959
 H     0.845767     2.951291     3.649517
 H     2.624451     2.805313     3.396035
 C     1.924458    -1.739801     1.775039
 O     2.079756    -2.622491     0.777101
 C     1.855362    -3.984744     1.005220
 H     1.889120    -4.470354     0.021848
 H     0.864779    -4.156809     1.458680
 H     2.636196    -4.429122     1.648336
 C     1.854850    -2.119497     3.120296
 H     1.930643    -3.168874     3.403019
 C     1.549347     0.197994     3.747545
 H     1.389457     0.952552     4.517254
 C     1.675733    -1.142082     4.094162
 H     1.620009    -1.433849     5.145875
 C     3.454851    -0.681906    -2.503368
 H     2.596078    -0.247664    -3.021101
 C     4.511612    -1.319280    -0.437039
 O     4.512264    -1.341019     0.910171
 C     5.356986    -2.218237     1.588934
 H     5.275159    -3.249915     1.202584
 H     5.037410    -2.203510     2.640215
 H     6.417029    -1.908131     1.536647
 C     4.523191    -1.185678    -3.240230
 H     4.513737    -1.123939    -4.330217
 C     5.574325    -1.854557    -1.177870
 H     6.415110    -2.319123    -0.661618
 C     5.582749    -1.784505    -2.568333
 H     6.426211    -2.204424    -3.122141
 C     1.671914     2.681575    -1.285778
 H     0.739773     2.322776    -1.717354
 C     3.600452     2.267312     0.088383
 O     4.248989     1.389741     0.868507
 C     5.485603     1.720636     1.422511
 H     6.225729     1.981074     0.645618
 H     5.827863     0.827694     1.959852
 H     5.406759     2.561005     2.135516
 C     2.088002     3.999597    -1.493830
 H     1.495128     4.668216    -2.121518
 C     4.025562     3.582080    -0.113862
 H     4.945592     3.942469     0.347430
 C     3.267071     4.443057    -0.910024
 H     3.611767     5.468147    -1.068188
 C    -1.976859     1.565475     2.325806
 O    -2.300679     0.451281     3.001010
 C    -2.305563     0.439032     4.395639
 H    -2.484296    -0.604083     4.689462
 H    -1.336497     0.764685     4.812274
 H    -3.108162     1.072947     4.814074
 C    -1.597137     2.659301     0.217450
 O    -1.539478     2.546928    -1.122470
 C    -1.718265     3.676889    -1.931049
 H    -1.751438     3.310114    -2.964064
 H    -0.881493     4.389006    -1.833762
 H    -2.663386     4.192408    -1.690630
 C    -1.484429     3.896362     0.861297
 H    -1.304767     4.803306     0.286043
 C    -1.859577     2.801748     2.977606
 H    -1.994313     2.866562     4.056720
 C    -1.609743     3.953054     2.241855
 H    -1.524366     4.914321     2.754551
 C    -3.525592     0.455724    -2.384699
 H    -2.621942     0.234399    -2.953089
 C    -4.638802     0.605232    -0.254401
 O    -4.535174     0.437620     1.075387
 C    -5.628390     0.691930     1.902958
 H    -5.968268     1.739968     1.825180
 H    -5.287227     0.501459     2.928400
 H    -6.479007     0.023687     1.678902
 C    -4.704151     0.817063    -3.040422
 H    -4.723095     0.891806    -4.129713
 C    -5.821601     0.974134    -0.900830
 H    -6.728122     1.171236    -0.327496
 C    -5.846451     1.080662    -2.292748
 H    -6.776418     1.369453    -2.789340
 C    -1.414585    -1.827669     1.970438
 H    -0.624483    -1.126142     2.233064
 C    -3.203785    -2.498940     0.514649
 O    -3.925140    -2.250457    -0.594032
 C    -4.870916    -3.169943    -1.047546
 H    -4.410478    -4.140265    -1.305330
 H    -5.313645    -2.732495    -1.951766
 H    -5.670693    -3.340970    -0.304787
 C    -1.552131    -2.997622     2.712070
 H    -0.881209    -3.183685     3.553100
 C    -3.350931    -3.677372     1.259668
 H    -4.098875    -4.415704     0.970161
 C    -2.535579    -3.918994     2.361051
 H    -2.662110    -4.842662     2.931536
