  96
scf done:    -2603.946123
 C    -0.750870    -0.024116    -3.527860
 H    -1.286791    -0.895229    -3.919432
 H    -1.293284     0.915525    -3.669150
 C     0.685837    -0.031124    -3.558656
 H     1.197571    -0.900797    -3.984680
 H     1.223379     0.905566    -3.735127
 H    -0.003987     1.386424    -1.564288
Ir    -0.009188    -0.253682    -1.525781
 C    -1.700873     1.314813     1.218838
 C    -3.306535     0.732894    -1.063967
 C    -2.566670    -1.359498     0.727651
 C     1.658564    -0.962361     1.513990
 C     3.390820    -0.925329    -0.730817
 C     2.502289     1.543781     0.303454
 P     1.853877    -0.123708    -0.106967
 P    -1.857116     0.089753    -0.143802
 C    -0.088455    -2.166495    -1.555637
 O    -0.154795    -3.313915    -1.578652
 C    -2.405203     1.175011     2.419474
 H    -3.058673     0.314470     2.575408
 C    -0.860147     2.418903     1.042580
 H    -0.298570     2.508487     0.109398
 C    -2.255982     2.129634     3.423382
 H    -2.797650     2.013431     4.365530
 C    -0.704935     3.386361     2.040545
 C     0.183543     4.575106     1.821483
 H     0.949100     4.363106     1.063383
 H    -0.402459     5.442643     1.474490
 H     0.692785     4.873256     2.749791
 C    -1.411407     3.221407     3.238704
 H    -1.294477     3.959285     4.037659
 C    -3.774368    -0.009916    -2.157225
 H    -3.267650    -0.939047    -2.429033
 C    -3.955202     1.925410    -0.739295
 H    -3.612490     2.520317     0.109849
 C    -4.868205     0.425525    -2.892488
 H    -5.220631    -0.173944    -3.736801
 C    -5.044020     2.365038    -1.493433
 H    -5.535646     3.304509    -1.225346
 C    -5.521191     1.627088    -2.578808
 C    -6.680173     2.106067    -3.402735
 H    -7.199290     2.946074    -2.920172
 H    -6.343722     2.447918    -4.395472
 H    -7.412902     1.301807    -3.570788
 C    -3.944708    -1.560469     0.866050
 H    -4.646491    -0.858957     0.409244
 C    -1.692422    -2.274995     1.324918
 H    -0.614175    -2.139969     1.225588
 C    -4.429930    -2.649508     1.586854
 H    -5.510467    -2.790338     1.681651
 C    -2.184549    -3.352135     2.052981
 H    -1.477399    -4.045620     2.516223
 C    -3.561701    -3.563359     2.194241
 C    -4.085688    -4.752474     2.944253
 H    -4.098141    -5.647415     2.299748
 H    -3.455524    -4.989256     3.814311
 H    -5.113799    -4.587849     3.297293
 C     2.053587    -2.298815     1.648590
 H     2.593185    -2.794979     0.839198
 C     0.958886    -0.348720     2.562330
 H     0.624516     0.686027     2.459372
 C     1.751425    -2.998494     2.815254
 H     2.062709    -4.041301     2.915349
 C     0.655503    -1.040345     3.738927
 C    -0.131653    -0.384581     4.834074
 H    -0.030960     0.708959     4.804893
 H    -1.204626    -0.612184     4.720916
 H     0.180806    -0.743043     5.826012
 C     1.062664    -2.375618     3.851965
 H     0.832254    -2.932254     4.764659
 C     3.360635    -1.711875    -1.881774
 H     2.420968    -1.813352    -2.426677
 C     4.607000    -0.784953    -0.047094
 H     4.659076    -0.170834     0.854941
 C     4.513949    -2.351484    -2.336345
 H     4.465273    -2.966089    -3.239449
 C     5.752888    -1.420780    -0.505611
 H     6.691198    -1.298397     0.043197
 C     5.728612    -2.217197    -1.660592
 C     6.978460    -2.882518    -2.156700
 H     6.760465    -3.612309    -2.948845
 H     7.681812    -2.140931    -2.569940
 H     7.503708    -3.406148    -1.343158
 C     3.059651     1.881346     1.541186
 H     3.054080     1.159356     2.360465
 C     2.536539     2.493164    -0.725248
 H     2.095507     2.241666    -1.693107
 C     3.629728     3.136940     1.742047
 H     4.055102     3.380756     2.719710
 C     3.118954     3.739470    -0.521387
 H     3.139917     4.461941    -1.342165
 C     3.672204     4.087966     0.717710
 C     4.248497     5.453157     0.949592
 H     4.719655     5.852628     0.039724
 H     3.459152     6.164407     1.246982
 H     4.999917     5.444294     1.752112
