  68
scf done:    -1837.566694
 C    -3.565734    -0.728343     1.149222
 H    -4.278102    -1.136195     0.424035
 H    -3.401980    -1.387110     2.008056
 C    -3.519056     0.699571     1.347918
 H    -4.202688     1.329052     0.767700
 H    -3.323200     1.092218     2.350522
 H    -1.158403    -0.177754     1.830353
Ir    -1.751013     0.048512     0.305909
 C     1.350326    -1.695533     0.272706
 C    -0.933967    -3.275418     0.880157
 C    -0.427704    -2.493960    -1.862048
 C     1.276325     1.472230    -0.895461
 C    -0.835369     3.335913    -0.620542
 C     0.483905     2.350064     1.775409
 P    -0.195643     1.785154     0.157997
 P    -0.432332    -1.823008    -0.145515
 C    -2.468278     0.379447    -1.424945
 O    -2.875062     0.622259    -2.477114
 C     2.384518    -2.019694    -0.608297
 H     2.171037    -2.350721    -1.625144
 C     1.675844    -1.247237     1.560686
 H     0.864799    -0.967354     2.240017
 C     3.711774    -1.911806    -0.193359
 H     4.515591    -2.166838    -0.888511
 C     2.999261    -1.129988     1.987766
 C     3.324462    -0.605970     3.356836
 H     3.684710     0.435671     3.304993
 H     2.442694    -0.617705     4.012752
 H     4.118286    -1.196615     3.838599
 C     4.018636    -1.479508     1.091563
 H     5.063658    -1.401068     1.404658
 H    -2.010357    -3.414997     0.689612
 C    -0.145605    -4.557414     0.680062
 H     0.931255    -4.396132     0.843036
 H    -0.273121    -4.964402    -0.334963
 H    -0.866170    -2.916248     1.919485
 H    -0.478358    -5.334684     1.385533
 H     0.289691    -3.327665    -1.927322
 C    -1.805047    -2.942216    -2.325668
 H    -2.546120    -2.136142    -2.230864
 H    -2.170771    -3.799178    -1.739616
 H    -0.041509    -1.683936    -2.501882
 H    -1.777224    -3.251908    -3.381255
 C     1.045764     1.117293    -2.231653
 H     0.022052     1.042438    -2.608734
 C     2.593301     1.516629    -0.430599
 H     2.797949     1.754285     0.614917
 C     2.114952     0.838605    -3.077285
 H     1.926225     0.563291    -4.118072
 C     3.679126     1.239942    -1.268831
 C     5.085640     1.329164    -0.753340
 H     5.559155     2.276149    -1.061810
 H     5.113079     1.283906     0.344354
 H     5.709710     0.510969    -1.142526
 C     3.422896     0.901193    -2.600777
 H     4.257706     0.675110    -3.270144
 H    -1.093586     3.059456    -1.655482
 C    -2.048629     3.908778     0.091965
 H    -1.810171     4.223941     1.119827
 H    -2.848903     3.157933     0.158733
 H    -0.012105     4.065614    -0.687032
 H    -2.437153     4.788591    -0.443246
 H     1.135759     1.530190     2.118831
 C     1.189025     3.697181     1.821013
 H     0.491588     4.524226     1.622929
 H     2.002530     3.771668     1.084556
 H    -0.381865     2.331222     2.455331
 H     1.624258     3.871514     2.817485
