  98
scf done:    -3126.792633
 C    -0.737685    -0.095918    -3.807550
 H    -1.270877    -0.993171    -4.140642
 H    -1.314426     0.824423    -3.938197
 C     0.696307    -0.053470    -3.927151
 H     1.223839    -0.917231    -4.343627
 H     1.186372     0.901145    -4.138582
 H     0.085269     1.369778    -1.910245
Ir     0.147029    -0.259264    -1.855168
 C    -3.165296     0.298595    -0.685146
 O    -1.537479    -1.185655     0.900869
 O    -0.958672     1.342160     0.677640
 C     2.005837    -0.271455     1.233986
 O     3.169521    -1.199633    -1.013974
 O     2.982676     1.273042    -0.772098
 P     2.037295    -0.070881    -0.593088
 P    -1.409065     0.039873    -0.225402
 C     0.126461    -2.184825    -1.876925
 O     0.055595    -3.332043    -1.882135
 C    -3.961719     1.430903    -0.430412
 O    -3.469062     2.355391     0.412405
 C    -4.256612     3.462277     0.756795
 H    -3.679525     4.030268     1.496348
 H    -4.462861     4.104750    -0.116255
 H    -5.213651     3.154541     1.211590
 C    -3.709697    -0.731540    -1.483343
 O    -2.935184    -1.818876    -1.614343
 C    -3.341824    -2.882753    -2.431387
 H    -2.520461    -3.608949    -2.419191
 H    -3.513111    -2.550530    -3.468952
 H    -4.256949    -3.359593    -2.040997
 C    -4.975628    -0.617123    -2.063103
 H    -5.383075    -1.416085    -2.680394
 C    -5.230396     1.552131    -1.014107
 H    -5.843977     2.432075    -0.829501
 C    -5.715910     0.534277    -1.825882
 H    -6.706523     0.636897    -2.275086
 C    -2.683048    -1.729537     1.407646
 C    -3.644206    -0.960676     2.065676
 H    -3.500515     0.115252     2.173514
 C    -2.855300    -3.107612     1.266714
 H    -2.092896    -3.672501     0.727484
 C    -4.780687    -1.582690     2.580217
 H    -5.533564    -0.978908     3.092419
 C    -3.990127    -3.718846     1.791672
 H    -4.121928    -4.798064     1.681234
 C    -4.959144    -2.958433     2.448101
 H    -5.851627    -3.438434     2.855448
 C    -1.097322     1.769039     1.958551
 C    -1.051759     0.912088     3.058754
 H    -0.921671    -0.158245     2.906914
 C    -1.172531     3.152569     2.149587
 H    -1.172988     3.796135     1.268385
 C    -1.130107     1.447591     4.343779
 H    -1.092684     0.769660     5.199836
 C    -1.235941     3.674339     3.437441
 H    -1.291703     4.756984     3.577797
 C    -1.227598     2.822440     4.544340
 H    -1.283363     3.230947     5.555651
 C     2.203833     0.758803     2.176244
 O     2.401459     1.997384     1.702723
 C     2.510275     3.079122     2.586749
 H     2.599299     3.974075     1.957882
 H     1.614284     3.172817     3.223389
 H     3.407626     2.996141     3.223892
 C     1.696249    -1.560379     1.717996
 O     1.464517    -2.492831     0.780015
 C     1.163098    -3.805641     1.164274
 H     0.977491    -4.359463     0.236520
 H     0.257533    -3.843003     1.793026
 H     2.006829    -4.267528     1.704810
 C     1.654548    -1.835077     3.088712
 H     1.432721    -2.837220     3.450929
 C     2.182559     0.481891     3.549809
 H     2.347612     1.276928     4.274431
 C     1.916099    -0.807820     3.987179
 H     1.896824    -1.015774     5.059693
 C     4.207049    -1.633700    -0.241157
 C     4.457874    -3.006931    -0.234090
 H     3.815615    -3.653514    -0.834581
 C     5.002077    -0.765338     0.510051
 H     4.801281     0.306448     0.482663
 C     5.503755    -3.513835     0.531780
 H     5.699255    -4.589174     0.533173
 C     6.040428    -1.287059     1.279414
 H     6.658995    -0.607540     1.870833
 C     6.296052    -2.657192     1.297111
 H     7.113190    -3.056802     1.901746
 C     2.648166     2.484694    -1.295336
 C     1.523568     3.197410    -0.873566
 H     0.857461     2.760801    -0.131165
 C     3.506046     3.022535    -2.255349
 H     4.371650     2.436233    -2.569023
 C     1.269262     4.452919    -1.420873
 H     0.384232     5.006108    -1.095582
 C     3.243426     4.281445    -2.789772
 H     3.918389     4.698501    -3.541186
 C     2.123662     5.002720    -2.375907
 H     1.916375     5.988144    -2.799081
