 104
scf done:    -2308.950863
 C     0.659571     3.170327     1.212826
 H     0.066002     4.005447     0.824196
 H     0.539965     3.028316     2.291688
 C     1.942055     2.899709     0.609217
 H     2.277336     3.537632    -0.216028
 H     2.763409     2.552878     1.243685
 H     1.053616     0.680180     1.491002
Ir     0.545636     1.349798     0.081468
 C    -1.247354    -1.330625     1.476733
 C    -2.545548     1.201126     1.761352
 C    -2.570908    -0.135293    -0.808648
 C     0.522335    -1.347873    -2.169686
 C     3.068825    -0.119421    -2.026991
 C     2.134649    -1.841211     0.142595
 P     1.598309    -0.469137    -0.961191
 P    -1.458682     0.268002     0.599794
 C    -0.054802     2.230674    -1.501077
 O    -0.441957     2.776744    -2.439545
 C    -1.617573    -2.562840     0.924377
 H    -2.106288    -2.611704    -0.048915
 C    -0.603050    -1.317902     2.719930
 H    -0.273273    -0.362658     3.138603
 C    -1.335233    -3.745792     1.605782
 H    -1.618878    -4.704730     1.164245
 C    -0.327293    -2.494296     3.422298
 C     0.348096    -2.439081     4.761956
 H     0.739585    -3.422617     5.057946
 H     1.184952    -1.724475     4.758984
 H    -0.355298    -2.112208     5.545260
 C    -0.696382    -3.714424     2.842527
 H    -0.475591    -4.648509     3.366158
 H    -3.403632     0.571265     2.049991
 H    -1.942324     1.365375     2.669103
 C    -2.994524     2.536973     1.188459
 H    -2.107197     3.074576     0.814585
 H    -3.643032     2.370137     0.310044
 C    -3.732480     3.405391     2.197161
 H    -3.079748     3.575773     3.072653
 H    -4.614468     2.861027     2.582025
 C    -4.173362     4.747210     1.629309
 H    -3.287358     5.281869     1.243925
 H    -4.820556     4.573192     0.751240
 C    -4.901894     5.620999     2.637368
 H    -5.206515     6.582797     2.197554
 H    -4.264246     5.841239     3.508715
 H    -5.810990     5.124605     3.013913
 H    -2.589753     0.770753    -1.436044
 H    -2.026897    -0.880305    -1.411513
 C    -3.985950    -0.606531    -0.499318
 H    -3.975689    -1.356585     0.309717
 H    -4.584662     0.236607    -0.114659
 C    -4.672266    -1.200263    -1.722410
 H    -4.068057    -2.047549    -2.096895
 H    -4.669858    -0.456886    -2.540203
 C    -6.096611    -1.667930    -1.461855
 H    -6.090438    -2.400074    -0.634742
 H    -6.697598    -0.815251    -1.099153
 C    -6.761992    -2.280857    -2.683477
 H    -7.789228    -2.610842    -2.466543
 H    -6.200613    -3.157577    -3.045488
 H    -6.812780    -1.559211    -3.514685
 C     0.053623    -0.636699    -3.283316
 H     0.383963     0.389007    -3.461768
 C     0.051462    -2.649307    -1.963335
 H     0.396911    -3.226873    -1.105158
 C    -0.871286    -1.212581    -4.147986
 H    -1.235538    -0.643902    -5.006940
 C    -0.895060    -3.235120    -2.813187
 C    -1.400405    -4.625152    -2.553212
 H    -1.130600    -4.967744    -1.543998
 H    -2.495601    -4.678649    -2.652261
 H    -0.975351    -5.344671    -3.272086
 C    -1.354796    -2.497823    -3.908960
 H    -2.100181    -2.933389    -4.580246
 H     3.503631    -1.082132    -2.348095
 H     2.659848     0.356796    -2.933900
 C     4.110135     0.797668    -1.404826
 H     3.593497     1.674247    -0.982204
 H     4.596462     0.298036    -0.550723
 C     5.174832     1.247250    -2.395016
 H     4.686939     1.758265    -3.245425
 H     5.680379     0.364330    -2.828069
 C     6.214016     2.174418    -1.780043
 H     5.700205     3.048142    -1.341883
 H     6.699541     1.660101    -0.931632
 C     7.270466     2.641202    -2.768229
 H     8.005735     3.308605    -2.293539
 H     6.816079     3.191368    -3.608048
 H     7.822647     1.788709    -3.196062
 H     1.206119    -2.237891     0.585239
 H     2.568445    -2.639427    -0.484280
 C     3.082109    -1.459762     1.269524
 H     4.052793    -1.129858     0.863854
 H     2.661804    -0.591090     1.803200
 C     3.305911    -2.607092     2.244526
 H     3.760027    -3.464106     1.713792
 H     2.325293    -2.965521     2.604721
 C     4.176074    -2.230736     3.435079
 H     5.154356    -1.868799     3.072089
 H     3.718647    -1.370620     3.955960
 C     4.383710    -3.373176     4.415944
 H     5.014283    -3.072369     5.266360
 H     4.869660    -4.234310     3.929463
 H     3.422759    -3.727109     4.823205
