  94
scf done:    -2674.691215
 C    -0.982727    -3.515595    -1.039521
 H    -1.482646    -4.125243    -0.279543
 H    -1.599743    -3.326341    -1.922638
 C     0.444146    -3.620162    -1.183574
 H     0.998132    -4.303468    -0.531644
 H     0.884065    -3.525848    -2.180599
 H    -0.149517    -1.208565    -1.832645
Ir    -0.061546    -1.722312    -0.284062
 C    -1.616579     1.539805    -0.289382
 O    -2.860762    -0.594521    -1.433239
 O    -2.889556    -0.328097     1.093338
 C     1.709004     1.298448     0.626492
 O     2.867274    -1.131368     0.961079
 O     2.717975    -0.114124    -1.382470
 P     1.804667    -0.410568    -0.060924
 P    -1.852961    -0.287136    -0.178565
 C     0.179944    -2.409457     1.494838
 O     0.396707    -2.835209     2.541392
 C    -1.749920     2.449477     0.782757
 O    -2.000585     1.956374     2.009334
 C    -2.348077     2.831179     3.042354
 H    -2.618105     2.204542     3.902712
 H    -1.508503     3.488263     3.328826
 H    -3.217560     3.455794     2.773951
 C    -1.200367     2.059917    -1.535265
 O    -1.006409     1.155451    -2.508456
 C    -0.423311     1.540599    -3.718630
 H    -0.255797     0.616360    -4.286080
 H     0.544367     2.040611    -3.552184
 H    -1.084880     2.204902    -4.302363
 C    -1.033222     3.433089    -1.743739
 H    -0.744915     3.815537    -2.721751
 C    -1.598602     3.827976     0.571061
 H    -1.716643     4.527615     1.396184
 C    -1.253966     4.304138    -0.685273
 H    -1.134740     5.379693    -0.836995
 C    -3.927933     0.237103    -1.881088
 H    -3.645282     1.294346    -1.730274
 C    -5.200142    -0.037924    -1.100360
 H    -5.051627     0.180453    -0.034922
 H    -5.490252    -1.095010    -1.202574
 H    -6.023199     0.586604    -1.480532
 C    -4.080064    -0.025485    -3.365412
 H    -3.131634     0.174881    -3.881525
 H    -4.350229    -1.078601    -3.538718
 H    -4.865556     0.612959    -3.797296
 C    -3.029399    -1.462389     1.938894
 H    -2.034623    -1.917008     2.073402
 C    -3.944917    -2.495801     1.310258
 H    -3.561941    -2.793235     0.323598
 H    -4.961552    -2.094084     1.182679
 H    -4.002273    -3.393037     1.945172
 C    -3.522170    -0.955011     3.277828
 H    -4.493000    -0.447951     3.164528
 H    -3.643786    -1.787712     3.986457
 H    -2.804855    -0.236635     3.698412
 C     1.943081     2.503827    -0.071158
 O     2.197194     2.438450    -1.390009
 C     2.607321     3.587721    -2.070312
 H     2.846446     3.272127    -3.094590
 H     1.811924     4.352535    -2.108001
 H     3.510705     4.032098    -1.617516
 C     1.318854     1.394301     1.981478
 O     1.045567     0.228586     2.591639
 C     0.534573     0.218608     3.895142
 H     0.329296    -0.832311     4.131947
 H    -0.401412     0.796699     3.959016
 H     1.263446     0.616600     4.622435
 C     1.257246     2.622352     2.647802
 H     0.984657     2.671220     3.700813
 C     1.894913     3.735193     0.600177
 H     2.088708     4.662077     0.063875
 C     1.564272     3.780845     1.946358
 H     1.528319     4.746287     2.456968
 C     3.993288    -0.520733     1.586075
 H     3.742233     0.528193     1.825257
 C     5.196952    -0.530717     0.662308
 H     4.980575     0.032106    -0.255585
 H     5.455545    -1.563775     0.383063
 H     6.066830    -0.076876     1.161596
 C     4.223121    -1.278261     2.877356
 H     3.309206    -1.264560     3.487038
 H     4.474116    -2.328586     2.663553
 H     5.047069    -0.830638     3.453318
 C     2.722185    -0.970332    -2.523011
 H     1.682981    -1.302684    -2.696118
 C     3.592534    -2.187484    -2.275833
 H     3.228292    -2.746775    -1.402341
 H     4.636404    -1.890594    -2.091705
 H     3.569930    -2.857697    -3.148678
 C     3.192451    -0.129169    -3.690967
 H     2.528839     0.734876    -3.832032
 H     4.211946     0.246038    -3.510526
 H     3.199519    -0.723264    -4.617075
