  70
scf done:    -1987.947498
 C     3.447558    -2.440333    -0.468786
 H     3.899530    -2.878452     0.427495
 H     3.065699    -3.190728    -1.168584
 C     4.002082    -1.218068    -0.998384
 H     4.858831    -0.764698    -0.488220
 H     4.022185    -1.074033    -2.082795
 H     1.501967    -1.201541    -1.604468
Ir     2.079094    -0.820783    -0.110950
 O    -1.216211    -0.909660    -0.184804
 C    -0.154884    -3.481215    -0.059543
 C    -0.418152    -1.810548     2.281376
 O     0.366532     1.861267     0.737450
 C     2.526404     2.676458    -0.670421
 C     0.271252     1.478338    -2.048575
 P     1.308921     1.308325    -0.542292
 P     0.076890    -1.747563     0.516390
 C     2.833574    -0.379220     1.594031
 O     3.299750    -0.100408     2.607153
 C    -2.484650    -1.390147    -0.328175
 C    -3.425342    -1.252348     0.693301
 H    -3.136619    -0.770540     1.628913
 C    -2.862753    -1.973272    -1.540255
 H    -2.123197    -2.052138    -2.339612
 C    -4.722387    -1.728087     0.508416
 H    -5.449011    -1.620139     1.318422
 C    -4.159958    -2.443819    -1.709069
 H    -4.440424    -2.905554    -2.660081
 C    -5.114399    -2.336976    -0.687990
 C    -6.516357    -2.834368    -0.890560
 H    -6.525548    -3.842911    -1.331324
 H    -7.076768    -2.176966    -1.575660
 H    -7.070738    -2.873717     0.057584
 H     0.840893    -3.927396     0.097283
 C    -1.243287    -4.355993     0.545940
 H    -2.248504    -3.931236     0.416282
 H    -1.080870    -4.520621     1.621369
 H    -0.257954    -3.396791    -1.154015
 H    -1.238591    -5.345796     0.063599
 H     0.330334    -2.467860     2.757828
 C    -0.461281    -0.451011     2.959879
 H    -1.184445     0.219368     2.473335
 H     0.511718     0.055717     2.917259
 H    -1.388949    -2.325928     2.360018
 H    -0.747680    -0.556424     4.017109
 C    -0.627084     2.791073     0.659981
 C    -1.927636     2.387404     0.348986
 H    -2.112961     1.331467     0.148850
 C    -0.365554     4.134051     0.932391
 H     0.649546     4.435910     1.197321
 C    -2.946918     3.331467     0.283695
 H    -3.958745     3.003394     0.028788
 C    -1.397815     5.067194     0.863760
 H    -1.180782     6.118697     1.072159
 C    -2.704256     4.688498     0.534226
 C    -3.817893     5.694549     0.487173
 H    -4.540899     5.458556    -0.307688
 H    -3.436706     6.710541     0.310174
 H    -4.375866     5.714639     1.438477
 H     3.021169     2.707968     0.313982
 C     3.541791     2.452563    -1.780201
 H     3.068785     2.456857    -2.774683
 H     4.042355     1.481116    -1.654913
 H     1.986934     3.629941    -0.794691
 H     4.308707     3.241602    -1.775525
 H    -0.628622     0.881001    -1.830332
 C    -0.063303     2.861495    -2.586311
 H     0.842004     3.425081    -2.857666
 H    -0.634971     3.466090    -1.869310
 H     0.830168     0.889263    -2.793798
 H    -0.672503     2.769435    -3.498935
