  96
scf done:    -2603.925662
 C     0.930497    -3.162519    -1.145254
 H     1.477639    -3.212968    -2.093263
 H     1.493610    -3.566807    -0.298542
 C    -0.499777    -3.277590    -1.162330
 H    -1.017203    -3.391411    -2.120327
 H    -1.007062    -3.783958    -0.337081
 H     0.096428    -1.811047     0.840286
Ir     0.044773    -1.246783    -0.694180
 C     2.981957    -0.892928     1.191350
 C     3.141853     0.473319    -1.318278
 C     1.556291     1.613358     0.859310
 C    -2.392183     1.349912    -0.877099
 C    -3.393641    -1.377513    -0.400425
 C    -2.267370     0.195731     1.734214
 P    -1.986432    -0.238168    -0.034866
 P     1.918136     0.028151    -0.004266
 C    -0.040016    -0.725545    -2.528314
 O    -0.088684    -0.470077    -3.649906
 C     2.400775    -1.549806     2.285363
 H     1.317293    -1.540815     2.413464
 C     4.366957    -0.977605     1.020703
 H     4.835613    -0.497338     0.159271
 C     3.198163    -2.235206     3.195434
 H     2.734680    -2.735709     4.049128
 C     5.180753    -1.680611     1.918225
 C     6.659021    -1.784033     1.677256
 H     6.885903    -2.610033     0.982678
 H     7.058549    -0.863524     1.226930
 H     7.208216    -1.978201     2.609707
 C     4.579061    -2.299755     3.016376
 H     5.196856    -2.847428     3.733478
 C     3.114717    -0.341627    -2.456432
 H     2.396575    -1.161951    -2.485497
 C     4.106843     1.507040    -1.233155
 C     4.305065     2.394896    -0.037189
 H     4.273865     1.833273     0.905585
 H     3.527702     3.170340     0.036560
 H     5.278766     2.900068    -0.104158
 C     3.978565    -0.139729    -3.527574
 H     3.926676    -0.794043    -4.400424
 C     4.955983     1.700832    -2.331737
 H     5.697337     2.502851    -2.277783
 C     4.896684     0.902970    -3.470277
 H     5.578688     1.090186    -4.303282
 C     1.788938     1.751327     2.233435
 H     2.278320     0.943039     2.780473
 C     0.950529     2.672629     0.146751
 C     0.746563     2.629842    -1.335456
 H     0.386938     1.643696    -1.658643
 H     1.691117     2.815061    -1.872169
 H     0.013532     3.382409    -1.654463
 C     1.411325     2.902315     2.917462
 H     1.599268     2.983523     3.990601
 C     0.579614     3.820791     0.856663
 H     0.109666     4.640450     0.306846
 C     0.796830     3.942860     2.226017
 H     0.491909     4.852192     2.749607
 C    -2.449853     1.420044    -2.276634
 H    -2.303526     0.526916    -2.884361
 C    -2.522998     2.534363    -0.143402
 H    -2.442041     2.505637     0.944941
 C    -2.670488     2.639623    -2.909107
 H    -2.713322     2.679964    -4.000072
 C    -2.739561     3.768234    -0.766334
 C    -2.907416     5.013157     0.055964
 H    -3.975069     5.234342     0.221591
 H    -2.437439     4.905065     1.043874
 H    -2.468491     5.890080    -0.442972
 C    -2.816533     3.806640    -2.162042
 H    -2.981531     4.761338    -2.669276
 C    -4.256251    -1.136278    -1.476220
 H    -4.153510    -0.220817    -2.058542
 C    -3.570245    -2.547302     0.376108
 C    -2.745576    -2.866858     1.588687
 H    -3.095173    -2.300203     2.466604
 H    -1.686805    -2.608502     1.443029
 H    -2.815939    -3.936906     1.829658
 C    -5.271382    -2.027384    -1.810217
 H    -5.928592    -1.808567    -2.655069
 C    -4.597457    -3.429431     0.018303
 H    -4.733044    -4.335768     0.615072
 C    -5.442037    -3.186561    -1.060186
 H    -6.231130    -3.899831    -1.309773
 C    -1.139669     0.205627     2.556903
 H    -0.181837    -0.047154     2.107182
 C    -3.531374     0.524266     2.281852
 C    -4.809298     0.552707     1.494146
 H    -5.197386    -0.463766     1.325036
 H    -4.678567     1.008211     0.503923
 H    -5.577090     1.121927     2.036693
 C    -1.219195     0.522178     3.908930
 H    -0.314956     0.528432     4.521379
 C    -3.589851     0.834317     3.646595
 H    -4.560836     1.089130     4.080227
 C    -2.458038     0.832654     4.458488
 H    -2.548855     1.081687     5.518695
