  88
scf done:    -3144.361757
 C     1.088631     1.223786     3.584663
 H     1.551420     0.491852     4.253472
 H     1.745036     2.065052     3.344170
 C    -0.328960     1.433577     3.642258
 H    -0.924261     0.861430     4.360320
 H    -0.736422     2.425709     3.430609
 H     0.327935     1.847285     1.219775
Ir     0.148990     0.352275     1.837632
 C     2.891673     1.004423    -0.365307
 O     2.870255    -1.306155     1.124485
 O     1.500295    -1.058620    -1.028993
 C    -2.738305    -1.036198     0.166193
 O    -2.830549     1.515474     1.028583
 O    -1.460843     0.898254    -1.061110
 P    -1.694651     0.403431     0.510877
 P     1.813185    -0.239540     0.397078
 C    -0.041694    -1.361848     2.703267
 O    -0.135868    -2.368264     3.244547
 C     3.665358     0.712142    -1.495677
 H     3.614645    -0.276213    -1.953769
 C     2.948821     2.278303     0.205178
 H     2.322173     2.495269     1.073516
 C     4.485776     1.699000    -2.032612
 H     5.094779     1.476582    -2.912195
 C     3.761019     3.280128    -0.334011
 C     3.767980     4.664358     0.243489
 H     3.255306     4.698585     1.214684
 H     4.793447     5.039129     0.382121
 H     3.254096     5.360961    -0.438186
 C     4.530760     2.968817    -1.460254
 H     5.168013     3.739504    -1.902795
 C     4.030878    -1.734805     0.530488
 C     4.017838    -2.835062    -0.326832
 H     3.077356    -3.349964    -0.529409
 C     5.224793    -1.068742     0.807515
 H     5.207588    -0.207124     1.476751
 C     5.203564    -3.266665    -0.916305
 H     5.223899    -4.124932    -1.590180
 C     6.411914    -1.498125     0.222752
 H     7.359348    -0.993834     0.420141
 C     6.385187    -2.590671    -0.636276
 F     7.519791    -3.001367    -1.202582
 C     0.582072    -2.051029    -1.190063
 C     0.259790    -2.960185    -0.180236
 H     0.766786    -2.909665     0.782780
 C    -0.019790    -2.163433    -2.446008
 H     0.265444    -1.464727    -3.233286
 C    -0.702974    -3.941571    -0.408585
 H    -0.988011    -4.643078     0.376596
 C    -0.962188    -3.155760    -2.684521
 H    -1.445802    -3.256163    -3.657679
 C    -1.306861    -4.022747    -1.653952
 F    -2.240452    -4.953088    -1.872681
 C    -3.067252    -1.858755     1.247382
 H    -2.657862    -1.653600     2.239269
 C    -3.269746    -1.300236    -1.098760
 H    -3.003019    -0.650910    -1.934125
 C    -3.926478    -2.936804     1.053926
 H    -4.186715    -3.582488     1.895884
 C    -4.126647    -2.384286    -1.304492
 C    -4.659009    -2.699697    -2.670441
 H    -5.749983    -2.844213    -2.653388
 H    -4.432128    -1.897855    -3.386474
 H    -4.211038    -3.633848    -3.046077
 C    -4.448284    -3.196227    -0.210257
 H    -5.111661    -4.052903    -0.356678
 C    -4.079384     1.578656     0.456944
 C    -4.276382     2.228573    -0.761876
 H    -3.431524     2.692315    -1.272081
 C    -5.153405     0.982841     1.118288
 H    -4.974505     0.477153     2.068112
 C    -5.550105     2.275867    -1.323594
 H    -5.732385     2.777603    -2.275534
 C    -6.427103     1.027582     0.560939
 H    -7.282492     0.565241     1.056406
 C    -6.608643     1.670986    -0.657719
 F    -7.826708     1.710713    -1.198188
 C    -0.631037     1.927160    -1.417157
 C    -0.670302     3.167497    -0.773080
 H    -1.366084     3.329042     0.051278
 C     0.258120     1.712721    -2.469079
 H     0.278587     0.735399    -2.948774
 C     0.198541     4.180257    -1.170349
 H     0.196109     5.151893    -0.673422
 C     1.121879     2.725000    -2.873841
 H     1.841517     2.570840    -3.678600
 C     1.088018     3.943219    -2.210001
 F     1.939093     4.908116    -2.572356
