  96
scf done:    -2976.398410
 C    -1.233362    -3.096003    -1.657962
 H    -1.797507    -3.748535    -0.982789
 H    -1.836877    -2.696438    -2.478285
 C     0.164559    -3.350738    -1.864229
 H     0.622403    -4.202091    -1.347646
 H     0.605515    -3.148084    -2.844820
 H    -0.156666    -0.809905    -2.116723
Ir    -0.097403    -1.567053    -0.663906
 O    -1.612113     1.309858    -1.009492
 C    -3.391284    -0.719847    -0.753416
 C    -2.035594     0.384426     1.626197
 O     2.099298    -0.077370     1.269527
 C     3.429251    -1.099815    -0.872599
 C     1.906756     1.291845    -1.184692
 P     1.832775    -0.345977    -0.366461
 P    -1.795167    -0.096360    -0.135789
 C    -0.042894    -2.506469     1.013668
 O    -0.039546    -3.063486     2.017612
 C    -2.308087     2.473063    -1.083114
 C    -1.805291     3.410999    -1.993241
 H    -0.923757     3.143714    -2.577067
 C    -3.449658     2.765619    -0.336512
 H    -3.879070     2.018706     0.328861
 C    -2.423104     4.649555    -2.125286
 H    -2.019853     5.375884    -2.835596
 C    -4.057051     4.013863    -0.479506
 H    -4.949968     4.237523     0.109921
 C    -3.549008     4.964299    -1.361714
 H    -4.032735     5.938046    -1.464583
 C    -3.972949    -0.239073    -1.922470
 H    -3.525234     0.614458    -2.433960
 C    -3.948218    -1.850057    -0.124177
 O    -3.305576    -2.261360     0.985853
 C    -3.670905    -3.461919     1.604301
 H    -4.686632    -3.407971     2.034783
 H    -2.945089    -3.627309     2.410164
 H    -3.625458    -4.310090     0.899303
 C    -5.115172    -0.845182    -2.451911
 H    -5.563623    -0.454104    -3.367319
 C    -5.085739    -2.461294    -0.649265
 H    -5.520406    -3.336013    -0.164261
 C    -5.667636    -1.948323    -1.812089
 H    -6.558290    -2.431772    -2.220788
 C    -0.858513     0.483233     2.375924
 H     0.100230     0.329155     1.878926
 C    -3.266539     0.541196     2.302831
 O    -4.394420     0.446221     1.574162
 C    -5.642512     0.375140     2.202315
 H    -5.675706    -0.445478     2.939396
 H    -6.373389     0.174819     1.408425
 H    -5.906343     1.321110     2.706738
 C    -0.875338     0.759221     3.741354
 H     0.066044     0.829961     4.289910
 C    -3.287514     0.798265     3.677818
 H    -4.238296     0.915817     4.197906
 C    -2.095647     0.912235     4.389845
 H    -2.131857     1.113957     5.463415
 C     3.240882     0.263727     1.929591
 C     3.439095     1.585107     2.334467
 H     2.690604     2.327415     2.059290
 C     4.169115    -0.724308     2.262846
 H     3.984255    -1.753202     1.950063
 C     4.578090     1.916652     3.062980
 H     4.731060     2.950896     3.382087
 C     5.310455    -0.379250     2.984447
 H     6.037574    -1.153621     3.241081
 C     5.521536     0.939712     3.385919
 H     6.414113     1.204359     3.957451
 C     3.422408    -2.451153    -1.220209
 H     2.454627    -2.957789    -1.231756
 C     4.664644    -0.410155    -0.852250
 O     4.630731     0.883320    -0.507090
 C     5.820645     1.603301    -0.350260
 H     6.470142     1.143422     0.413343
 H     5.529330     2.604663    -0.011009
 H     6.371643     1.690832    -1.302640
 C     4.597208    -3.129146    -1.541949
 H     4.565015    -4.186748    -1.810331
 C     5.844924    -1.087298    -1.177133
 H     6.801117    -0.564421    -1.158626
 C     5.804306    -2.438576    -1.517806
 H     6.736824    -2.951587    -1.766949
 C     2.422619     1.341548    -2.481463
 H     2.802914     0.421400    -2.933063
 C     1.384768     2.471594    -0.621309
 O     0.819052     2.381546     0.597857
 C     0.203233     3.510020     1.162486
 H     0.938510     4.303611     1.385433
 H    -0.257109     3.170060     2.098504
 H    -0.582721     3.915301     0.505000
 C     2.473730     2.530771    -3.203230
 H     2.882823     2.540464    -4.215429
 C     1.470226     3.676950    -1.329013
 H     1.085234     4.596685    -0.889698
 C     2.012319     3.702913    -2.611403
 H     2.060595     4.651327    -3.152239
