  90
scf done:    -2373.881586
 C     0.684929    -3.410077     0.190789
 H     0.605926    -3.978161    -0.743307
 H     1.667209    -3.495112     0.662786
 C    -0.481993    -3.284765     1.032969
 H    -1.417408    -3.759088     0.713600
 H    -0.354151    -3.289999     2.120184
 H     0.914696    -1.193091     1.426301
Ir    -0.049747    -1.397747     0.112605
 C     2.842314     0.623500     0.092639
 C     2.588262    -1.197670    -2.195935
 C     0.917534     1.300093    -2.084913
 C    -2.740620     0.834533    -0.031871
 C    -2.430590    -0.573395     2.541827
 C    -0.605808     1.713718     1.860688
 P    -1.441162     0.199839     1.142103
 P     1.563706    -0.117325    -1.042703
 C    -1.198776    -1.806502    -1.347508
 O    -1.909212    -2.131614    -2.197673
 C     2.946021     1.978632     0.474239
 O     2.080285     2.859141    -0.077403
 C     2.191819     4.221918     0.208481
 H     1.442374     4.730146    -0.411790
 H     1.983561     4.440073     1.270579
 H     3.188800     4.617846    -0.050736
 C     3.702051    -0.280134     0.765699
 O     3.579631    -1.575772     0.432687
 C     4.312461    -2.551935     1.115302
 H     4.010694    -3.517586     0.690770
 H     4.083321    -2.549504     2.194366
 H     5.399956    -2.423363     0.974490
 C     4.632890     0.142976     1.720486
 H     5.282619    -0.575948     2.216399
 C     3.889501     2.411102     1.416780
 H     3.955352     3.462987     1.688214
 C     4.724684     1.491836     2.031699
 H     5.452369     1.830697     2.772493
 H     2.725265    -2.081553    -1.559545
 C     1.787594    -1.643522    -3.413147
 H     2.313624    -2.474127    -3.911006
 H     0.786990    -2.004939    -3.136643
 H     1.674856    -0.840798    -4.156960
 C     3.966461    -0.678864    -2.587637
 H     4.551029    -0.348010    -1.718339
 H     4.533866    -1.484845    -3.082476
 H     3.911896     0.160655    -3.294279
 H     0.575725     1.994198    -1.307977
 C     1.954034     2.012013    -2.946056
 H     1.546644     2.972795    -3.303840
 H     2.881307     2.226842    -2.397889
 H     2.211556     1.421989    -3.838450
 C    -0.321358     0.929811    -2.893060
 H    -1.108472     0.509443    -2.256610
 H    -0.729917     1.842129    -3.358407
 H    -0.118141     0.215617    -3.701803
 C    -2.710114     2.072629    -0.711151
 O    -1.692787     2.917032    -0.427331
 C    -1.647130     4.178984    -1.024193
 H    -0.778124     4.692501    -0.593823
 H    -1.517466     4.113768    -2.118626
 H    -2.551541     4.772261    -0.804454
 C    -3.745055    -0.075960    -0.442590
 O    -3.719571    -1.286345     0.143138
 C    -4.560967    -2.309962    -0.310295
 H    -4.295612    -3.202885     0.269928
 H    -4.395440    -2.516224    -1.380302
 H    -5.624933    -2.072865    -0.136644
 C    -4.702749     0.251225    -1.408080
 H    -5.465498    -0.470123    -1.695988
 C    -3.673864     2.412187    -1.669537
 H    -3.637976     3.378141    -2.169872
 C    -4.665320     1.502051    -2.006113
 H    -5.410860     1.766972    -2.759114
 H    -2.692786    -1.535672     2.084709
 C    -1.548559    -0.876852     3.747332
 H    -2.049943    -1.620175     4.388201
 H    -0.576222    -1.291857     3.444450
 H    -1.370972     0.015535     4.365325
 C    -3.720397     0.129107     2.946185
 H    -4.361334     0.355802     2.083298
 H    -4.295552    -0.521947     3.625773
 H    -3.531512     1.070363     3.480979
 H    -0.198904     2.173777     0.951558
 C    -1.535841     2.712773     2.540143
 H    -1.015909     3.676721     2.672479
 H    -2.451615     2.903205     1.964531
 H    -1.827415     2.366805     3.543179
 C     0.589461     1.387629     2.752109
 H     1.223152     0.605616     2.314655
 H     1.205184     2.293539     2.871499
 H     0.290059     1.064270     3.757481
