  90
scf done:    -2373.902705
 C     1.558095    -2.814109     0.396951
 H     1.875735    -3.313576    -0.525057
 H     2.395737    -2.478771     1.017866
 C     0.334489    -3.235841     1.030673
 H    -0.246508    -4.044645     0.574786
 H     0.276200    -3.232064     2.123742
 H     0.641430    -0.730602     1.565121
Ir     0.074183    -1.292901     0.125048
 C     3.019941     0.387465     0.067820
 C     1.598111     0.432193    -2.543682
 C     0.799861     2.214532    -0.486305
 C    -2.483093     1.204787    -0.074971
 C    -3.501379    -1.305933     0.859397
 C    -1.838836     0.178197     2.628944
 P    -1.927846    -0.303588     0.848358
 P     1.350029     0.470275    -0.708361
 C    -0.530547    -1.991766    -1.537666
 O    -0.852637    -2.434886    -2.554932
 C     3.224127     0.929323     1.353131
 O     2.192806     1.622191     1.881107
 C     2.201639     1.960292     3.237188
 H     1.216119     2.393718     3.454332
 H     2.348660     1.072161     3.875293
 H     2.978474     2.708218     3.475169
 C     4.043357    -0.425364    -0.457677
 O     3.786231    -1.026312    -1.636516
 C     4.665380    -1.995170    -2.130701
 H     4.206074    -2.393273    -3.044721
 H     4.804671    -2.820309    -1.411283
 H     5.651262    -1.568602    -2.386094
 C     5.248949    -0.618784     0.228800
 H     6.037013    -1.237974    -0.197130
 C     4.423760     0.739691     2.048093
 H     4.570696     1.179559     3.033617
 C     5.429755    -0.025868     1.471664
 H     6.369017    -0.175681     2.009026
 H     2.485198     1.017541    -2.833339
 H     1.815964    -0.614532    -2.788834
 C     0.351678     0.896855    -3.290354
 H     0.279897     1.996468    -3.264382
 H    -0.544696     0.526164    -2.765513
 C     0.324868     0.414813    -4.732294
 H     1.219291     0.744745    -5.284994
 H     0.290740    -0.685203    -4.774564
 H    -0.556544     0.799283    -5.269762
 H    -0.108702     2.296678    -1.102689
 H     0.473287     2.315028     0.555276
 C     1.798689     3.298919    -0.857849
 H     2.067485     3.210222    -1.924424
 H     2.735056     3.147334    -0.296767
 C     1.258963     4.695096    -0.585851
 H     0.311089     4.867900    -1.120992
 H     1.061279     4.834517     0.489623
 H     1.969863     5.476664    -0.895653
 C    -2.381609     2.537049     0.372638
 O    -1.904533     2.732265     1.620368
 C    -1.797102     4.029436     2.131342
 H    -1.409628     3.927779     3.153723
 H    -1.096034     4.646131     1.543188
 H    -2.775693     4.538588     2.171721
 C    -2.902370     1.007310    -1.409630
 O    -2.941636    -0.273961    -1.825770
 C    -3.339544    -0.577031    -3.136252
 H    -3.255729    -1.664877    -3.238016
 H    -2.676315    -0.104629    -3.880058
 H    -4.380568    -0.263300    -3.324360
 C    -3.239785     2.076137    -2.247448
 H    -3.563432     1.900683    -3.272160
 C    -2.725230     3.613323    -0.456278
 H    -2.647121     4.637640    -0.095596
 C    -3.150114     3.372381    -1.756617
 H    -3.412289     4.213706    -2.402233
 H    -4.042315    -1.040520     1.784029
 H    -4.123392    -0.968129     0.020394
 C    -3.287300    -2.808500     0.768522
 H    -2.615648    -3.142166     1.575758
 H    -2.743255    -3.030022    -0.163230
 C    -4.593184    -3.585869     0.815263
 H    -5.135711    -3.407324     1.758129
 H    -5.264091    -3.291358    -0.008418
 H    -4.419497    -4.669735     0.732047
 H    -0.968122     0.840256     2.724326
 H    -2.731104     0.764335     2.899569
 C    -1.674067    -1.027705     3.543846
 H    -0.852939    -1.653463     3.159782
 H    -2.581280    -1.654641     3.515428
 C    -1.386470    -0.617591     4.979989
 H    -0.451098    -0.037741     5.043001
 H    -2.192752     0.011386     5.391736
 H    -1.278650    -1.494456     5.636787
