 104
scf done:    -2308.947077
 C    -1.145739    -1.707338    -2.938785
 H    -1.952771    -2.439142    -2.821854
 H    -1.392183    -0.912941    -3.651305
 C     0.220283    -2.161345    -2.843834
 H     0.416204    -3.221124    -2.649973
 H     0.976011    -1.694317    -3.483962
 H     0.214312     0.255564    -2.038714
Ir    -0.271240    -0.999939    -1.105066
 C    -1.132865     2.305488    -0.157563
 C    -3.415378     0.594468    -0.799103
 C    -2.041658     0.238328     1.676727
 C     2.609432    -2.181076     0.492268
 C     3.007523     0.087217    -1.271732
 C     1.970459     0.545135     1.329864
 P     1.795302    -0.636205    -0.079364
 P    -1.700685     0.552843    -0.110505
 C    -0.852039    -2.518500    -0.101979
 O    -1.212808    -3.440264     0.486779
 C    -0.666330     2.903808     1.023043
 H    -0.710064     2.356287     1.965064
 C    -1.042122     3.032352    -1.368027
 C    -1.505827     2.491456    -2.689535
 H    -2.589046     2.642891    -2.823222
 H    -1.294273     1.415667    -2.779832
 H    -1.000345     3.010119    -3.516324
 C    -0.126949     4.186917     1.033815
 H     0.221699     4.622153     1.973103
 C    -0.492059     4.320289    -1.334503
 H    -0.417445     4.877885    -2.272216
 C    -0.037568     4.902402    -0.156033
 H     0.387209     5.908768    -0.169481
 H    -3.319473     0.816080    -1.870929
 H    -3.971259     1.425941    -0.337180
 C    -4.122188    -0.743218    -0.629191
 H    -3.435113    -1.538659    -0.963363
 H    -4.324796    -0.939425     0.439281
 C    -5.435965    -0.867914    -1.403638
 H    -5.207213    -0.675515    -2.468966
 C    -5.979283    -2.287466    -1.291485
 H    -5.245299    -3.027197    -1.646746
 H    -6.900655    -2.413994    -1.880894
 H    -6.218427    -2.533668    -0.243246
 C    -6.475050     0.152612    -0.952738
 H    -7.416215     0.036487    -1.512309
 H    -6.130744     1.187647    -1.098174
 H    -6.707992     0.024571     0.118330
 H    -1.077422     0.337372     2.201781
 H    -2.272722    -0.837941     1.714599
 C    -3.130336     1.058651     2.355191
 H    -3.013860     2.125021     2.100284
 H    -4.116552     0.761830     1.957159
 C    -3.156987     0.919538     3.879906
 H    -2.169008     1.247727     4.257566
 C    -4.213999     1.840446     4.477586
 H    -4.047849     2.888684     4.183891
 H    -4.213791     1.793433     5.577563
 H    -5.221690     1.554072     4.132900
 C    -3.371450    -0.522894     4.325359
 H    -3.408084    -0.597436     5.423126
 H    -2.569461    -1.190607     3.976460
 H    -4.325761    -0.914189     3.933754
 C     3.581898    -2.776615    -0.323751
 H     3.890806    -2.285772    -1.247542
 C     2.198283    -2.849194     1.667618
 C     1.159892    -2.295536     2.601670
 H     0.371858    -1.751933     2.063096
 H     1.608256    -1.597645     3.328439
 H     0.681333    -3.103793     3.171340
 C     4.159391    -3.998706     0.006589
 H     4.912873    -4.439414    -0.650378
 C     2.793664    -4.076086     1.981990
 H     2.473356    -4.594644     2.890029
 C     3.765915    -4.652168     1.170399
 H     4.206872    -5.613811     1.443127
 H     2.897906    -0.497712    -2.198796
 H     4.031831    -0.066209    -0.897562
 C     2.734504     1.560431    -1.554365
 H     1.644924     1.721247    -1.614511
 H     3.092371     2.177918    -0.711334
 C     3.370748     2.081189    -2.843961
 H     2.983190     1.458371    -3.672309
 C     2.936657     3.519633    -3.098457
 H     1.839913     3.602364    -3.141327
 H     3.346962     3.903785    -4.045354
 H     3.284223     4.183301    -2.288901
 C     4.890042     1.958771    -2.831925
 H     5.329146     2.345140    -3.764878
 H     5.219747     0.914761    -2.719665
 H     5.320956     2.537252    -1.996852
 H     1.207415     0.295566     2.080410
 H     1.658880     1.511404     0.904618
 C     3.347187     0.623071     1.970232
 H     3.605559    -0.364515     2.388309
 H     4.112969     0.827730     1.200774
 C     3.469652     1.683343     3.068390
 H     2.640791     1.517058     3.783318
 C     4.781688     1.518159     3.826285
 H     4.866850     0.514899     4.271996
 H     4.875273     2.257782     4.636643
 H     5.642211     1.655464     3.150290
 C     3.337184     3.097321     2.513002
 H     3.395890     3.848743     3.315826
 H     2.385413     3.250355     1.983364
 H     4.151298     3.310332     1.799547
