 100
scf done:    -2904.599368
 C    -0.566985    -0.777264    -3.494142
 H    -1.121425    -1.691055    -3.734329
 H    -1.068568     0.132820    -3.836927
 C     0.870111    -0.835122    -3.471600
 H     1.356417    -1.788690    -3.705370
 H     1.450520     0.030675    -3.804159
 H     0.179964     0.965303    -1.826393
Ir     0.114012    -0.630175    -1.463211
 C    -1.495824     1.656921     0.732190
 C    -3.192485     0.497776    -1.240713
 C    -2.466000    -1.035566     1.024470
 C     1.738258    -0.984389     1.653014
 C     3.542643    -0.859114    -0.535068
 C     2.299026     1.538488     0.339599
 P     1.908741    -0.216909    -0.006101
 P    -1.725462     0.095187    -0.215163
 C     0.027238    -2.518508    -1.167595
 O    -0.012587    -3.660331    -1.032312
 C    -1.800324     1.763379     2.091583
 H    -2.199709     0.903603     2.632155
 C    -0.998755     2.780428     0.057123
 H    -0.751960     2.693347    -1.004174
 C    -1.583469     2.969093     2.760390
 H    -1.807681     3.042334     3.827841
 C    -0.819800     4.005384     0.702594
 C    -0.363899     5.220701    -0.050967
 H    -0.143689     4.979114    -1.099358
 H    -1.142100     6.001122    -0.039643
 H     0.546249     5.656529     0.387567
 C    -1.101471     4.078185     2.074396
 H    -0.949550     5.022782     2.604812
 C    -3.943498     1.673755    -1.106884
 H    -3.645785     2.431685    -0.379207
 C    -3.607792    -0.449675    -2.180010
 H    -3.025177    -1.365635    -2.303000
 C    -5.067804     1.893315    -1.891558
 H    -5.654187     2.809465    -1.798540
 C    -4.739541    -0.247949    -2.965028
 H    -5.029786    -1.012073    -3.686412
 C    -5.477486     0.934724    -2.826834
 O    -6.579097     1.231457    -3.544614
 C    -7.030078     0.312632    -4.499222
 H    -7.302631    -0.655445    -4.042607
 H    -7.924483     0.750669    -4.960307
 H    -6.275829     0.132423    -5.285550
 C    -1.699402    -2.058452     1.598907
 H    -0.663657    -2.197143     1.288345
 C    -3.794776    -0.893834     1.438941
 H    -4.421096    -0.116455     0.994380
 C    -2.233098    -2.895671     2.566822
 H    -1.633341    -3.688382     3.017135
 C    -4.346182    -1.728660     2.408402
 H    -5.386715    -1.588342     2.702036
 C    -3.561073    -2.736950     2.983663
 O    -3.997583    -3.591897     3.928390
 C    -5.320592    -3.490206     4.374104
 H    -6.043923    -3.651509     3.555439
 H    -5.459687    -4.274342     5.129130
 H    -5.524528    -2.508798     4.838018
 C     2.330886    -2.221907     1.926737
 H     3.001994    -2.681499     1.198143
 C     0.878450    -0.417519     2.602045
 H     0.386686     0.532367     2.382573
 C     2.060042    -2.868104     3.131851
 H     2.524089    -3.835061     3.341566
 C     0.605419    -1.051816     3.816538
 C    -0.369941    -0.452501     4.785955
 H    -0.374063     0.645260     4.727817
 H    -1.392089    -0.800352     4.556429
 H    -0.146617    -0.746656     5.821724
 C     1.210154    -2.288645     4.070419
 H     1.006041    -2.804751     5.012716
 C     4.731810    -0.419994     0.070497
 H     4.696131     0.354182     0.840938
 C     3.623952    -1.838783    -1.522667
 H     2.704839    -2.170561    -2.009224
 C     5.955298    -0.950332    -0.300601
 H     6.886039    -0.613063     0.159514
 C     4.849374    -2.387582    -1.903347
 H     4.871838    -3.151595    -2.680650
 C     6.025449    -1.942794    -1.291616
 O     7.257249    -2.399002    -1.587530
 C     7.393076    -3.385781    -2.571468
 H     7.026945    -3.039173    -3.553936
 H     8.465115    -3.606639    -2.650113
 H     6.856681    -4.312394    -2.300804
 C     2.341396     2.420484    -0.752846
 H     2.107491     2.042153    -1.750892
 C     2.602477     2.041683     1.604288
 H     2.606457     1.379593     2.471732
 C     2.655646     3.756348    -0.580112
 H     2.687227     4.446819    -1.424884
 C     2.893736     3.393598     1.797275
 H     3.099562     3.752476     2.805750
 C     2.911126     4.260656     0.703390
 O     3.140822     5.588301     0.786602
 C     3.402283     6.147485     2.043457
 H     4.310932     5.719109     2.501643
 H     3.557791     7.222043     1.884354
 H     2.555255     6.007315     2.738408
