  94
scf done:    -3222.776084
 C    -1.116876    -0.628763    -3.315533
 H    -1.731353    -1.519770    -3.485149
 H    -1.633210     0.301725    -3.571508
 C     0.304490    -0.725740    -3.517272
 H     0.714442    -1.692498    -3.831163
 H     0.846967     0.123562    -3.944415
 H    -0.095904     1.062741    -1.756646
Ir    -0.130285    -0.526887    -1.411471
 C    -2.700558     1.693225    -0.721989
 C    -3.308954    -1.063217     0.062611
 C    -1.716673     0.445318     1.723025
 C     1.854688    -0.335689     1.642605
 C     3.265519    -1.234490    -0.639749
 C     2.704383     1.458732    -0.514681
 P     1.837496    -0.136711    -0.191859
 P    -1.925635     0.152139    -0.079350
 C    -0.125144    -2.419725    -1.086101
 O    -0.103412    -3.561212    -0.942357
 C    -1.974461     2.897926    -0.612765
 O    -0.790776     2.814707     0.016286
 C     0.093477     3.900846    -0.035665
 H     1.048347     3.532758     0.352188
 H     0.244781     4.247381    -1.070602
 H    -0.265167     4.746074     0.578815
 C    -3.896929     1.717344    -1.470769
 O    -4.502388     0.540886    -1.688553
 C    -5.720806     0.478914    -2.371502
 H    -6.007066    -0.580501    -2.385051
 H    -5.628044     0.840559    -3.410297
 H    -6.508420     1.056867    -1.857815
 C    -4.399694     2.920006    -1.986582
 H    -5.334649     2.932198    -2.544729
 C    -2.469440     4.099840    -1.133205
 H    -1.909893     5.026959    -1.019364
 C    -3.685993     4.096941    -1.803974
 H    -4.079874     5.032432    -2.208158
 C    -4.298756    -0.916173     1.042208
 H    -4.252189    -0.080671     1.744236
 C    -3.386786    -2.145732    -0.815194
 H    -2.626830    -2.254476    -1.589632
 C    -5.349618    -1.822068     1.137549
 H    -6.127638    -1.720047     1.896402
 C    -4.429324    -3.065257    -0.730519
 H    -4.496548    -3.918351    -1.408113
 C    -5.400405    -2.888421     0.246245
 F    -6.402261    -3.762761     0.336486
 C    -2.066256     1.612367     2.403623
 H    -2.457882     2.470376     1.856078
 C    -1.255321    -0.655953     2.457371
 H    -0.982545    -1.575172     1.931439
 C    -1.940101     1.690468     3.791348
 H    -2.207230     2.596423     4.339164
 C    -1.152171    -0.602229     3.840834
 H    -0.793256    -1.452978     4.420483
 C    -1.481849     0.581871     4.489335
 F    -1.344141     0.657230     5.814568
 C     1.780985     0.698871     2.595906
 O     1.545498     1.944052     2.145293
 C     1.513442     3.002280     3.064261
 H     1.340608     3.915445     2.483594
 H     0.691822     2.879182     3.789007
 H     2.469692     3.102406     3.605539
 C     1.904641    -1.662057     2.126971
 O     1.763959    -2.615538     1.193814
 C     2.043650    -3.956719     1.490843
 H     1.906442    -4.509251     0.554076
 H     1.347863    -4.359794     2.246058
 H     3.081364    -4.078261     1.844160
 C     2.078070    -1.944093     3.485010
 H     2.160097    -2.972432     3.834614
 C     1.952796     0.423728     3.961057
 H     1.923136     1.225297     4.696498
 C     2.122918    -0.886680     4.386351
 H     2.255873    -1.090169     5.451380
 C     3.240996    -1.906940    -1.861935
 H     2.359685    -1.803352    -2.497611
 C     4.394469    -1.365444     0.178843
 H     4.433355    -0.859624     1.146197
 C     4.313065    -2.700987    -2.266736
 H     4.302240    -3.232830    -3.219890
 C     5.469274    -2.159149    -0.206979
 H     6.351826    -2.275445     0.424948
 C     5.414156    -2.818393    -1.431035
 F     6.441794    -3.581141    -1.803297
 C     3.720667     1.947621     0.317175
 H     3.968199     1.429019     1.245156
 C     2.435992     2.132748    -1.707844
 H     1.644783     1.751413    -2.356858
 C     4.424689     3.099604    -0.013408
 H     5.211152     3.495442     0.631804
 C     3.142351     3.281167    -2.062199
 H     2.937791     3.813399    -2.992989
 C     4.123075     3.755329    -1.203493
 F     4.795513     4.860260    -1.522264
