 110
scf done:    -3283.798769
 C     0.967336     1.727201    -3.025179
 H     1.657758     2.572261    -2.926056
 H     1.358710     0.929164    -3.664051
 C    -0.448589     1.989812    -3.011865
 H    -0.778116     3.029313    -2.900203
 H    -1.111113     1.403151    -3.656156
 H    -0.098059    -0.352364    -2.089426
Ir     0.132663     0.986286    -1.192976
 C     2.499835    -1.507629    -1.639291
 C     3.448514     0.716829     0.019907
 C     1.843305    -1.188531     1.183476
 C    -1.598790    -0.218802     1.778625
 C    -3.081408     1.588395     0.186884
 C    -2.820160    -0.985473    -0.773394
 P    -1.762847     0.299469     0.013491
 P     1.944961    -0.262598    -0.397623
 C     0.352336     2.611554    -0.197377
 O     0.461335     3.615692     0.355884
 C     1.654294    -2.604950    -1.907155
 O     0.530339    -2.673804    -1.176122
 C    -0.470004    -3.586218    -1.535741
 H    -1.350124    -3.319833    -0.942342
 H    -0.728669    -3.500468    -2.603340
 H    -0.166432    -4.626923    -1.320484
 C     3.637694    -1.347732    -2.459274
 O     4.357955    -0.229043    -2.291072
 C     5.540632    -0.024825    -3.005096
 H     5.945419     0.932295    -2.651955
 H     5.359779     0.038715    -4.092593
 H     6.280683    -0.820541    -2.810123
 C     3.971173    -2.305963    -3.427127
 H     4.862905    -2.182725    -4.039970
 C     1.978635    -3.559436    -2.879669
 H     1.326323    -4.412705    -3.058710
 C     3.143461    -3.403842    -3.620165
 H     3.404338    -4.147843    -4.376670
 C     4.499004     0.152174     0.759827
 H     4.421574    -0.878904     1.112801
 C     3.576077     2.036371    -0.403331
 H     2.774300     2.481266    -0.993872
 C     5.637970     0.883006     1.053238
 H     6.458597     0.451639     1.629886
 C     4.714236     2.789394    -0.111595
 H     4.770187     3.822339    -0.456029
 C     5.756304     2.212361     0.620200
 O     6.896638     2.850453     0.957652
 C     7.060023     4.183858     0.568263
 H     6.279310     4.836986     0.997076
 H     8.038817     4.506072     0.946289
 H     7.047945     4.297452    -0.530668
 C     1.591924    -0.405131     2.322614
 H     1.408385     0.666719     2.205385
 C     2.082960    -2.547730     1.356329
 H     2.314518    -3.176582     0.495788
 C     1.586989    -0.962943     3.587126
 H     1.392151    -0.358364     4.473291
 C     2.050628    -3.131763     2.627314
 H     2.240129    -4.201477     2.723895
 C     1.796023    -2.339407     3.749109
 O     1.720038    -2.807530     5.014851
 C     1.921127    -4.172159     5.236348
 H     2.929113    -4.498790     4.923758
 H     1.814955    -4.338024     6.316252
 H     1.173746    -4.791115     4.706634
 C    -1.562271    -1.541037     2.262768
 O    -1.514351    -2.534702     1.356464
 C    -1.526863    -3.860571     1.803854
 H    -1.517772    -4.492997     0.908573
 H    -0.633497    -4.087301     2.409773
 H    -2.435286    -4.087385     2.388522
 C    -1.457444     0.819957     2.725527
 O    -1.285292     2.045555     2.207187
 C    -1.403497     3.186516     3.010515
 H    -1.285489     4.043685     2.337275
 H    -0.613227     3.227382     3.779601
 H    -2.392799     3.231155     3.496451
 C    -1.484148     0.573166     4.101163
 H    -1.417603     1.392993     4.815278
 C    -1.581620    -1.797645     3.641949
 H    -1.574410    -2.819440     4.016007
 C    -1.566327    -0.741922     4.542766
 H    -1.576209    -0.953065     5.614434
 C    -4.118666     1.485279     1.126803
 H    -4.139192     0.650037     1.830830
 C    -3.087067     2.676517    -0.679937
 H    -2.283356     2.762914    -1.413649
 C    -5.113949     2.445758     1.201064
 H    -5.918782     2.375511     1.935614
 C    -4.087825     3.649460    -0.624137
 H    -4.052639     4.486508    -1.321952
 C    -5.108914     3.540038     0.322465
 O    -6.117187     4.425955     0.467640
 C    -6.164755     5.531704    -0.387490
 H    -6.257519     5.230193    -1.446108
 H    -7.052761     6.111921    -0.105311
 H    -5.271628     6.173336    -0.282033
 C    -2.729248    -1.182787    -2.155944
 H    -1.955180    -0.647125    -2.709745
 C    -3.815719    -1.675408    -0.077193
 H    -3.932186    -1.530253     0.998689
 C    -3.584464    -2.054035    -2.816442
 H    -3.513589    -2.209300    -3.894764
 C    -4.673198    -2.564021    -0.721411
 H    -5.429942    -3.089692    -0.138392
 C    -4.559968    -2.760620    -2.104119
 O    -5.340233    -3.597512    -2.819097
 C    -6.349795    -4.306189    -2.160048
 H    -7.085474    -3.631865    -1.686718
 H    -6.861294    -4.909116    -2.921324
 H    -5.942767    -4.981903    -1.386338
