  92
scf done:    -2675.755273
 C     1.216033    -3.609804    -0.657269
 H     1.697843    -3.771393    -1.627101
 H     1.880753    -3.789713     0.193017
 C    -0.191345    -3.864726    -0.523497
 H    -0.748257    -4.224538    -1.395491
 H    -0.580752    -4.241660     0.426274
 H     0.376478    -1.984988     1.125774
Ir     0.176472    -1.732138    -0.480737
 O     1.649711     0.645059     1.335574
 C     3.468742    -0.987995     0.177736
 C     2.196598     1.121219    -1.296973
 O    -1.443306     1.097451    -0.172049
 C    -3.288488    -0.875857    -0.674239
 C    -2.116762    -0.526683     1.923380
 P    -1.691792    -0.550713     0.150428
 P     1.846656    -0.211675    -0.106828
 C    -0.017334    -1.511404    -2.381005
 O    -0.114136    -1.385136    -3.518582
 C     2.067670     1.938317     1.506892
 C     3.319980     2.210887     2.057412
 H     3.979576     1.383949     2.324728
 C     1.207683     2.977803     1.148513
 H     0.240030     2.729021     0.711376
 C     3.711585     3.536079     2.243111
 H     4.692831     3.751332     2.673320
 C     1.610545     4.296667     1.335297
 H     0.937623     5.108011     1.047694
 C     2.862919     4.581195     1.880884
 H     3.176925     5.617484     2.024802
 C     3.892374    -1.296520     1.471970
 H     3.284527    -0.984300     2.324076
 C     4.236441    -1.427991    -0.908347
 H     3.907853    -1.216315    -1.929599
 C     5.074033    -2.007355     1.675296
 H     5.392643    -2.237714     2.695818
 C     5.414400    -2.133337    -0.696118
 H     6.005210    -2.461658    -1.556092
 C     5.857153    -2.435782     0.599615
 C     7.122117    -3.214115     0.813031
 H     7.016181    -4.248335     0.446867
 H     7.966445    -2.764343     0.267689
 H     7.391612    -3.262666     1.877280
 C     3.450172     1.742825    -1.382619
 H     4.286175     1.371161    -0.786502
 C     1.137639     1.629926    -2.055427
 H     0.147557     1.180583    -1.960069
 C     3.632716     2.841855    -2.212445
 H     4.615034     3.319866    -2.261301
 C     1.328609     2.733100    -2.881608
 H     0.485660     3.123551    -3.458161
 C     2.576746     3.357017    -2.976576
 C     2.790374     4.532863    -3.882629
 H     3.271942     4.219147    -4.823862
 H     1.840048     5.019093    -4.144206
 H     3.446310     5.283623    -3.417376
 C    -2.363245     2.101428    -0.103249
 C    -2.671643     2.710568     1.115920
 H    -2.197316     2.351272     2.029867
 C    -2.953927     2.552104    -1.286370
 H    -2.697650     2.054255    -2.223441
 C    -3.587727     3.760830     1.143430
 H    -3.830233     4.234801     2.097694
 C    -3.863758     3.604866    -1.247064
 H    -4.326813     3.952268    -2.173826
 C    -4.188342     4.209862    -0.032462
 H    -4.904592     5.033960    -0.003195
 C    -3.346510    -1.876124    -1.648916
 H    -2.448267    -2.462918    -1.854436
 C    -4.458593    -0.151499    -0.388513
 H    -4.457806     0.619099     0.384182
 C    -4.531534    -2.137703    -2.332228
 H    -4.552928    -2.929215    -3.086112
 C    -5.635317    -0.414289    -1.078708
 H    -6.532793     0.164427    -0.842944
 C    -5.693414    -1.407187    -2.066785
 C    -6.964164    -1.661942    -2.821758
 H    -7.836830    -1.661432    -2.151462
 H    -7.134970    -0.875384    -3.575458
 H    -6.935228    -2.625601    -3.349149
 C    -1.171364     0.011847     2.810494
 H    -0.226354     0.399367     2.421244
 C    -3.288953    -1.079392     2.442922
 H    -4.027430    -1.529722     1.777091
 C    -1.422185     0.030959     4.175099
 H    -0.676475     0.462679     4.848988
 C    -3.524196    -1.068332     3.818145
 H    -4.447683    -1.506877     4.206266
 C    -2.605034    -0.506392     4.706384
 C    -2.854768    -0.488398     6.185472
 H    -2.091179    -1.073705     6.722607
 H    -2.811939     0.537565     6.584089
 H    -3.838811    -0.908958     6.435042
