 100
scf done:    -2380.762767
 C    -0.964060    -2.534314    -2.529566
 H    -1.578779    -3.361717    -2.159999
 H    -1.430895    -1.971120    -3.343030
 C     0.468216    -2.669010    -2.504245
 H     0.906583    -3.594587    -2.116404
 H     1.056067    -2.215347    -3.308299
 H    -0.017989    -0.157024    -2.209374
Ir    -0.149426    -1.253933    -0.996199
 O    -2.573764     0.841969    -1.701601
 C    -3.412941    -0.949680     0.256072
 C    -1.762437     1.346058     0.864203
 O     1.371293     1.324558     0.466355
 C     2.731193    -0.988225     1.031756
 C     2.931313     0.284243    -1.564370
 P     1.717918    -0.166778    -0.259892
 P    -1.973418     0.010903    -0.372429
 C    -0.272611    -2.537607     0.421216
 O    -0.334992    -3.278207     1.300706
 C    -3.826957     1.368004    -1.786938
 C    -4.082000     2.669652    -1.347216
 H    -3.260271     3.262872    -0.942493
 C    -4.853086     0.606823    -2.353137
 H    -4.622468    -0.394053    -2.722993
 C    -5.373637     3.185652    -1.429965
 H    -5.571171     4.201158    -1.078108
 C    -6.141133     1.130210    -2.429795
 H    -6.942692     0.527825    -2.864178
 C    -6.409787     2.415863    -1.958561
 H    -7.421674     2.822455    -2.017231
 H    -3.791256    -1.499820    -0.622341
 H    -2.968789    -1.722336     0.906207
 C    -4.539484    -0.223576     0.982989
 H    -4.170305     0.153660     1.951900
 H    -4.861623     0.662888     0.415838
 C    -5.751109    -1.114526     1.217640
 H    -5.451923    -2.007081     1.797154
 H    -6.109687    -1.494394     0.243528
 C    -6.892776    -0.400406     1.927065
 H    -6.532109    -0.014707     2.897265
 H    -7.175698     0.489977     1.337938
 C    -8.112736    -1.279949     2.147034
 H    -8.920720    -0.735183     2.658618
 H    -7.865466    -2.161261     2.760651
 H    -8.515208    -1.649894     1.190174
 H    -1.034727     2.036631     0.410007
 H    -2.711370     1.886843     1.008596
 C    -1.209238     0.818761     2.181537
 H    -1.973983     0.220894     2.708514
 H    -0.377739     0.129684     1.959555
 C    -0.697412     1.922679     3.094623
 H    -1.529257     2.592592     3.378872
 H     0.014944     2.546573     2.527914
 C    -0.011370     1.399539     4.347961
 H    -0.723912     0.790577     4.932157
 H     0.793107     0.703476     4.047890
 C     0.565952     2.501487     5.221387
 H     1.060172     2.096500     6.117666
 H    -0.220170     3.195266     5.560331
 H     1.309796     3.096341     4.666694
 C     2.261114     2.318227     0.736853
 C     2.433978     3.353944    -0.185429
 H     1.856739     3.335493    -1.111878
 C     2.957800     2.337526     1.948642
 H     2.784179     1.541637     2.674706
 C     3.335642     4.379679     0.086622
 H     3.473997     5.182454    -0.641657
 C     3.855633     3.369787     2.213203
 H     4.401349     3.378246     3.159860
 C     4.056770     4.387740     1.281123
 H     4.764049     5.192911     1.490821
 H     3.564331    -0.333467     1.333929
 H     2.063315    -1.093076     1.904024
 C     3.240396    -2.355590     0.591582
 H     2.413964    -2.922429     0.130845
 H     3.994695    -2.233214    -0.205237
 C     3.836340    -3.164422     1.734701
 H     3.068373    -3.296141     2.518373
 H     4.655604    -2.592032     2.207208
 C     4.353258    -4.529126     1.302242
 H     3.529339    -5.089926     0.826921
 H     5.115878    -4.394697     0.514587
 C     4.935421    -5.343986     2.445678
 H     5.298710    -6.324518     2.102623
 H     4.182886    -5.524169     3.230149
 H     5.783233    -4.821859     2.918094
 H     2.926083    -0.578751    -2.250435
 H     2.446860     1.099306    -2.128289
 C     4.354597     0.654479    -1.163102
 H     4.351750     1.381174    -0.336301
 H     4.875305    -0.239072    -0.778831
 C     5.151856     1.241477    -2.319400
 H     4.622943     2.133121    -2.702807
 H     5.175630     0.522485    -3.158566
 C     6.572551     1.628801    -1.934433
 H     6.531146     2.343372    -1.093192
 H     7.098128     0.738773    -1.544897
 C     7.366926     2.231336    -3.081695
 H     8.387512     2.502896    -2.771981
 H     6.882493     3.143284    -3.466506
 H     7.451638     1.525622    -3.923771
