 114
scf done:    -2688.159302
 C    -1.032809    -1.212576    -2.937773
 H    -0.832500    -0.589982    -3.816815
 H    -0.524099    -2.182087    -2.969569
 C    -2.316464    -1.109181    -2.291325
 H    -3.058186    -0.411740    -2.695013
 H    -2.766984    -2.009258    -1.860367
 H    -0.595780    -1.742084    -0.478087
Ir    -0.786476    -0.213432    -1.058588
 C     2.205228    -1.719255    -1.582814
 C     2.385083     1.243909    -1.605023
 C     2.272069    -0.124386     0.873278
 C    -0.640941     1.380431     2.144746
 C    -3.338352     0.901888     1.308726
 C    -1.782890    -1.358725     2.066336
 P    -1.619022     0.205747     1.099433
 P     1.526379    -0.190784    -0.808200
 C    -0.975169     1.524685    -1.808837
 O    -1.051423     2.560553    -2.314902
 C     2.223617    -2.932259    -0.864844
 O     1.864781    -2.865766     0.435132
 C     1.619777    -4.040671     1.151433
 H     1.232221    -3.731189     2.131286
 H     0.863155    -4.669917     0.652169
 H     2.538349    -4.634196     1.304466
 C     2.470580    -1.785516    -2.964703
 O     2.335956    -0.635948    -3.655224
 C     2.380554    -0.653399    -5.052943
 H     2.159200     0.369822    -5.382907
 H     1.623122    -1.337021    -5.473295
 H     3.376861    -0.940692    -5.432382
 C     2.824232    -2.990137    -3.585579
 H     3.041250    -3.022200    -4.652245
 C     2.574665    -4.141208    -1.476238
 H     2.601064    -5.066937    -0.903035
 C     2.882131    -4.154770    -2.831155
 H     3.157980    -5.095925    -3.312350
 H     3.441201     1.002466    -1.804589
 H     1.901328     1.374715    -2.580631
 C     2.254199     2.519130    -0.780936
 H     1.238843     2.584912    -0.352630
 H     2.941138     2.490380     0.081726
 C     2.529157     3.773499    -1.598557
 H     1.763224     3.857260    -2.390285
 H     3.497145     3.669287    -2.122265
 C     2.544142     5.048514    -0.767408
 H     1.592994     5.126634    -0.211893
 H     3.327091     4.966914     0.007303
 C     2.762096     6.307157    -1.590854
 H     2.771968     7.211060    -0.962636
 H     1.967632     6.432667    -2.344141
 H     3.721407     6.268288    -2.131825
 H     1.996558     0.871842     1.251748
 H     1.730140    -0.846858     1.493806
 C     3.773872    -0.334714     0.963977
 H     4.045948    -1.295894     0.496977
 H     4.300209     0.443631     0.383855
 C     4.277383    -0.311985     2.400488
 H     3.784115    -1.126280     2.962864
 H     3.954494     0.627880     2.885753
 C     5.786582    -0.457186     2.530058
 H     6.103237    -1.391081     2.032836
 H     6.276815     0.358358     1.969490
 C     6.272020    -0.452047     3.970601
 H     7.365852    -0.556076     4.034602
 H     5.826015    -1.280267     4.545247
 H     5.997341     0.485591     4.480812
 C     0.203454     1.037308     3.219060
 O     0.238326    -0.261840     3.583107
 C     1.017553    -0.659851     4.674409
 H     0.858817    -1.740238     4.789383
 H     2.091350    -0.474161     4.503347
 H     0.708793    -0.153722     5.605553
 C    -0.637140     2.730524     1.728995
 O    -1.431137     3.016678     0.678727
 C    -1.533131     4.332939     0.207067
 H    -2.227674     4.302790    -0.640090
 H    -0.562361     4.711327    -0.153117
 H    -1.923987     5.010949     0.984953
 C     0.149061     3.699378     2.362188
 H     0.136168     4.735263     2.026762
 C     0.993774     2.001267     3.860007
 H     1.642411     1.723479     4.689291
 C     0.959125     3.320321     3.425018
 H     1.579383     4.068335     3.924107
 H    -3.813107     0.340917     2.131528
 H    -3.244250     1.941716     1.647534
 C    -4.185191     0.841100     0.050108
 H    -3.663237     1.387365    -0.752800
 H    -4.248830    -0.198929    -0.310393
 C    -5.583523     1.408343     0.242768
 H    -5.510851     2.451953     0.601865
 H    -6.101340     0.853841     1.047453
 C    -6.429890     1.367397    -1.022090
 H    -5.906906     1.920444    -1.822289
 H    -6.493764     0.324007    -1.378195
 C    -7.828566     1.932872    -0.836219
 H    -8.413720     1.889129    -1.767521
 H    -7.794326     2.986511    -0.514428
 H    -8.386319     1.374519    -0.066830
 H    -0.788849    -1.825364     2.066338
 H    -2.040217    -1.127480     3.111415
 C    -2.798359    -2.304190     1.440852
 H    -3.818863    -1.895877     1.544447
 H    -2.600180    -2.374420     0.358738
 C    -2.751077    -3.696924     2.053181
 H    -2.917070    -3.633032     3.144726
 H    -1.731692    -4.107186     1.928898
 C    -3.757412    -4.661782     1.442483
 H    -4.775035    -4.252540     1.572172
 H    -3.592772    -4.707339     0.351547
 C    -3.689607    -6.061586     2.031192
 H    -4.428149    -6.734902     1.570011
 H    -3.882880    -6.049367     3.116250
 H    -2.693640    -6.509487     1.881396
