  66
scf done:    -2059.652506
 C    -0.800311     1.556092    -2.932547
 H    -0.575868     2.622105    -3.047738
 H    -0.531008     0.961795    -3.811552
 C    -1.952376     1.167530    -2.155544
 H    -2.570470     1.948020    -1.697196
 H    -2.528179     0.285930    -2.454134
 H    -0.253985    -0.739275    -1.896306
Ir    -0.173245     0.684585    -1.065560
 C     2.981192    -0.291699     0.291951
 C     2.648323    -0.623184    -2.633620
 C     3.102339     1.909035    -1.570235
 C    -2.677682    -0.758222     0.815695
 C    -0.192657    -2.373413     0.689442
 C    -0.339920    -0.200363     2.421960
 P    -0.840777    -0.661231     0.714247
 P     2.131655     0.393022    -1.200820
 C    -0.128396     2.311382    -0.082491
 O    -0.110741     3.281857     0.545444
 C     3.059502     0.530296     1.437292
 O     2.569311     1.777202     1.300855
 C     2.466766     2.616707     2.418813
 H     1.944008     3.517480     2.076552
 H     1.874303     2.146212     3.221759
 H     3.459530     2.891816     2.814733
 C     3.395366    -1.631454     0.431185
 O     3.231542    -2.431896    -0.642204
 C     3.549413    -3.790773    -0.553052
 H     3.307030    -4.230425    -1.529087
 H     2.954909    -4.300147     0.225415
 H     4.621989    -3.951855    -0.346753
 C     3.917278    -2.111723     1.640351
 H     4.243820    -3.146420     1.732351
 C     3.584175     0.060349     2.647298
 H     3.650531     0.712869     3.516518
 C     4.013992    -1.258207     2.732093
 H     4.424969    -1.631983     3.672717
 H     2.128951    -1.585735    -2.620649
 H     2.316081    -0.056412    -3.516317
 H     3.735469    -0.779244    -2.671970
 H     4.181479     1.696049    -1.612932
 H     2.757546     2.272022    -2.549442
 H     2.905092     2.677305    -0.815657
 C    -3.367142     0.408510     1.207963
 O    -2.596237     1.451435     1.575247
 C    -3.173652     2.713690     1.764862
 H    -2.341044     3.412716     1.909704
 H    -3.751972     3.028083     0.879521
 H    -3.830573     2.735268     2.651922
 C    -3.448818    -1.841499     0.352239
 O    -2.775200    -2.922942    -0.092780
 C    -3.476890    -4.000090    -0.641287
 H    -2.723224    -4.729969    -0.964403
 H    -4.076838    -3.696248    -1.516625
 H    -4.142318    -4.480423     0.097766
 C    -4.849081    -1.782761     0.340215
 H    -5.437566    -2.630558    -0.007193
 C    -4.764429     0.476231     1.196641
 H    -5.281111     1.380625     1.514684
 C    -5.491032    -0.627725     0.768443
 H    -6.582607    -0.584163     0.759000
 H    -0.353376    -2.819630    -0.296433
 H     0.887945    -2.276474     0.869264
 H    -0.645745    -3.002862     1.467590
 H    -0.845742    -0.832426     3.167518
 H     0.746787    -0.353535     2.495221
 H    -0.577256     0.852078     2.610390
