  92
scf done:    -2675.755476
 C     1.609324    -3.513761    -0.439784
 H     2.178948    -3.644984    -1.365628
 H     2.212080    -3.645396     0.463801
 C     0.216158    -3.861324    -0.419781
 H    -0.243071    -4.258858    -1.331271
 H    -0.224247    -4.259710     0.498397
 H     0.520035    -1.937818     1.253782
Ir     0.437586    -1.708090    -0.366591
 O     1.610382     0.804052     1.506412
 C     3.609836    -0.762480     0.565865
 C     2.353930     1.232432    -1.084178
 O    -1.402463     1.002558    -0.258134
 C    -3.055874    -1.103461    -0.842875
 C    -2.110454    -0.620201     1.828635
 P    -1.549894    -0.654757     0.092002
 P     1.978700    -0.084516     0.120236
 C     0.382852    -1.497052    -2.277484
 O     0.365875    -1.363254    -3.418277
 C     1.917061     2.131555     1.656201
 C     3.111607     2.519912     2.262367
 H     3.819771     1.757210     2.589511
 C     0.998461     3.087475     1.219562
 H     0.079758     2.749072     0.739141
 C     3.385086     3.877025     2.426985
 H     4.321136     4.182939     2.900686
 C     1.283258     4.439471     1.386821
 H     0.564825     5.185535     1.038796
 C     2.476530     4.839489     1.989032
 H     2.698299     5.901363     2.116946
 C     3.959567    -0.958326     1.903392
 H     3.283822    -0.623878     2.693106
 C     4.457049    -1.227520    -0.446865
 H     4.168804    -1.094664    -1.494227
 C     5.163427    -1.589799     2.213649
 H     5.442982    -1.739951     3.259440
 C     5.664714    -1.861438    -0.148091
 C     6.557375    -2.375545    -1.240056
 H     6.445737    -3.466378    -1.355673
 H     6.316350    -1.914805    -2.208303
 H     7.617466    -2.179053    -1.020213
 C     6.009073    -2.030679     1.200389
 H     6.951971    -2.522372     1.455808
 C     3.592477     1.887049    -1.129381
 H     4.410876     1.563073    -0.483718
 C     1.311712     1.668893    -1.904632
 H     0.339173     1.177175    -1.829268
 C     3.768051     2.958040    -1.998198
 H     4.730919     3.472897    -2.037608
 C     1.474534     2.749720    -2.777675
 C     0.326957     3.203647    -3.631731
 H    -0.056285     2.375322    -4.248209
 H    -0.510409     3.556683    -3.008439
 H     0.619532     4.022314    -4.303920
 C     2.719088     3.384345    -2.813682
 H     2.869998     4.230313    -3.490206
 C    -2.404679     1.924939    -0.309312
 C    -2.847372     2.565484     0.850670
 H    -2.405996     2.297610     1.811512
 C    -2.954563     2.254575    -1.551149
 H    -2.595372     1.732658    -2.439940
 C    -3.855296     3.524331     0.760943
 H    -4.203122     4.022285     1.669268
 C    -3.957568     3.217241    -1.629134
 H    -4.387361     3.470285    -2.601444
 C    -4.415796     3.851672    -0.473559
 H    -5.204346     4.604832    -0.536252
 C    -2.965562    -2.093056    -1.828048
 H    -2.017965    -2.617770    -1.967209
 C    -4.279833    -0.451698    -0.638380
 H    -4.372512     0.305119     0.143486
 C    -4.079498    -2.406507    -2.601511
 H    -4.008573    -3.182832    -3.366872
 C    -5.401946    -0.745466    -1.419048
 C    -6.684187     0.002883    -1.198174
 H    -7.042938    -0.116536    -0.163643
 H    -6.537658     1.082327    -1.363803
 H    -7.478065    -0.342855    -1.874735
 C    -5.282954    -1.731960    -2.403951
 H    -6.150603    -1.977923    -3.022676
 C    -1.292705     0.038478     2.758558
 H    -0.361504     0.504977     2.428549
 C    -3.261902    -1.276924     2.266694
 H    -3.888034    -1.812907     1.549522
 C    -1.663014     0.066691     4.097284
 H    -1.032990     0.589033     4.821415
 C    -3.634237    -1.268841     3.617839
 C    -4.861644    -2.006340     4.069360
 H    -5.694761    -1.871053     3.363338
 H    -4.667049    -3.089600     4.136270
 H    -5.194228    -1.668319     5.061027
 C    -2.826588    -0.576524     4.523020
 H    -3.106640    -0.548833     5.579848
