 100
scf done:    -2904.733782
 C     0.558560    -3.539329     0.560802
 H     1.404536    -3.937859    -0.008188
 H     0.693449    -3.610107     1.643290
 C    -0.763968    -3.598681     0.012988
 H    -0.917808    -4.046279    -0.973569
 H    -1.623310    -3.713348     0.678262
 H    -0.656617    -1.463106     1.459984
Ir    -0.046137    -1.555112    -0.055208
 C     1.076838     1.234832     1.878002
 O     2.861667    -0.608575     1.400744
 O     2.078692     0.836190    -0.630488
 C    -1.387388     1.177919    -1.848765
 O    -3.113674    -0.702766    -1.289751
 O    -2.225834     0.753874     0.694422
 P    -1.710239    -0.112060    -0.615744
 P     1.489936    -0.037277     0.645179
 C     0.693280    -1.771402    -1.826799
 O     1.153722    -1.903286    -2.867988
 C     1.197069     2.603992     1.621488
 H     1.588886     2.960747     0.668736
 C     0.560794     0.801255     3.102859
 H     0.439925    -0.270761     3.282166
 C     0.822853     3.520136     2.602085
 H     0.922146     4.590575     2.407359
 C     0.179164     1.710997     4.092396
 C    -0.416131     1.234210     5.384730
 H    -1.512694     1.152926     5.299649
 H    -0.035925     0.240662     5.661376
 H    -0.201105     1.928623     6.209661
 C     0.326316     3.078648     3.825681
 H     0.036821     3.807598     4.587814
 C     3.481022    -1.756953     0.976139
 C     3.767720    -1.967157    -0.369761
 H     3.507988    -1.201187    -1.103001
 C     3.818058    -2.709559     1.936126
 H     3.576282    -2.517177     2.982589
 C     4.371968    -3.157995    -0.788966
 C     4.650810    -3.377225    -2.247381
 H     3.750652    -3.188342    -2.852384
 H     5.432239    -2.688707    -2.607711
 H     4.989933    -4.403757    -2.443780
 C     4.434982    -3.886198     1.525876
 H     4.698768    -4.644042     2.267465
 C     4.700849    -4.115532     0.175263
 H     5.170896    -5.052053    -0.135256
 C     3.158897     1.660606    -0.784964
 C     4.133272     1.862123     0.190362
 H     4.061022     1.340616     1.145129
 C     3.238096     2.309276    -2.020879
 H     2.457344     2.121691    -2.760467
 C     5.203534     2.732119    -0.056626
 C     6.248520     2.937562     1.001491
 H     5.795813     3.278219     1.945857
 H     6.778380     1.996736     1.219950
 H     6.994937     3.682465     0.692846
 C     4.299861     3.172308    -2.262743
 H     4.368178     3.685324    -3.225195
 C     5.276268     3.386790    -1.288866
 H     6.106959     4.067887    -1.489425
 C    -1.616327     0.959768    -3.209925
 H    -2.107790     0.043208    -3.541765
 C    -0.767618     2.355868    -1.424688
 H    -0.598360     2.521918    -0.358676
 C    -1.219693     1.927855    -4.129185
 H    -1.397417     1.768465    -5.195473
 C    -0.373691     3.337656    -2.336728
 C     0.297261     4.591358    -1.856271
 H    -0.136984     4.932743    -0.904994
 H     1.373262     4.417238    -1.686142
 H     0.205543     5.406105    -2.588503
 C    -0.606248     3.103042    -3.697200
 H    -0.308110     3.858282    -4.429880
 C    -3.688948    -1.864792    -0.839123
 C    -3.949260    -2.057313     0.514845
 H    -3.676098    -1.275758     1.227005
 C    -4.017753    -2.839957    -1.778445
 H    -3.796311    -2.662007    -2.832022
 C    -4.533937    -3.248462     0.958965
 C    -4.771332    -3.463788     2.425402
 H    -3.815516    -3.562834     2.965412
 H    -5.308091    -2.613379     2.873109
 H    -5.357449    -4.374628     2.610497
 C    -4.611536    -4.019335    -1.341464
 H    -4.873642    -4.793082    -2.067030
 C    -4.863430    -4.225968     0.014785
 H    -5.322061    -5.160952     0.346312
 C    -3.023489     1.869782     0.707872
 C    -4.056990     2.074213    -0.202133
 H    -4.253456     1.326372    -0.971734
 C    -2.749014     2.806258     1.705771
 H    -1.924796     2.615612     2.394559
 C    -4.832061     3.239036    -0.133499
 C    -5.931855     3.458713    -1.131514
 H    -5.529317     3.509309    -2.155807
 H    -6.658362     2.631251    -1.111676
 H    -6.475464     4.393121    -0.934526
 C    -3.522932     3.958185     1.777671
 H    -3.314451     4.699184     2.553443
 C    -4.555336     4.177378     0.864596
 H    -5.154594     5.089257     0.927066
