  96
scf done:    -2976.565254
 C    -0.540311    -0.811323    -4.038098
 H    -1.295599    -1.588158    -4.191869
 H    -0.815504     0.162208    -4.452393
 C     0.841072    -1.184245    -3.968990
 H     1.116339    -2.237959    -4.074237
 H     1.607135    -0.492260    -4.327842
 H     0.586623     0.844682    -2.455774
Ir     0.146538    -0.650582    -1.990274
 O    -1.922507     1.885697    -1.609822
 O    -2.970523    -0.194038    -0.692890
 O    -1.179058     1.039245     0.618250
 O     2.294268    -1.890072     0.282673
 O     3.367263    -0.294436    -1.312425
 O     1.982337     0.510667     0.661627
 P     1.915886    -0.554686    -0.598018
 P    -1.478758     0.480892    -0.902481
 C    -0.286791    -2.504377    -1.601600
 O    -0.450707    -3.621414    -1.416336
 C    -2.783431     2.770221    -0.996471
 C    -2.266428     3.746277    -0.147022
 H    -1.191362     3.780714     0.033688
 C    -4.152956     2.672276    -1.233215
 H    -4.522934     1.888112    -1.894761
 C    -3.139896     4.633810     0.476409
 H    -2.739075     5.394621     1.150332
 C    -5.016629     3.567489    -0.603993
 H    -6.091864     3.494961    -0.783877
 C    -4.514509     4.546815     0.253545
 H    -5.195652     5.243414     0.747472
 C    -3.181790    -1.550994    -0.684744
 C    -2.969701    -2.279575     0.484823
 H    -2.625905    -1.760171     1.381291
 C    -3.621400    -2.172722    -1.850042
 H    -3.770641    -1.575532    -2.750942
 C    -3.191601    -3.658531     0.504567
 C    -2.925539    -4.453603     1.749452
 H    -2.001314    -5.045885     1.642579
 H    -2.806900    -3.798589     2.623878
 H    -3.740780    -5.163111     1.956513
 C    -3.851325    -3.546744    -1.829856
 H    -4.194943    -4.049573    -2.736877
 C    -3.636829    -4.282812    -0.667676
 H    -3.812516    -5.361710    -0.669441
 C    -1.777582     0.681791     1.797568
 C    -3.094996     1.047544     2.064038
 H    -3.652587     1.614614     1.317296
 C    -1.028782    -0.039070     2.727283
 H    -0.000825    -0.317614     2.493063
 C    -3.698738     0.680447     3.270657
 C    -5.131705     1.043557     3.531593
 H    -5.365260     2.046485     3.144772
 H    -5.811423     0.335784     3.028587
 H    -5.365982     1.022172     4.605374
 C    -1.626607    -0.398466     3.932646
 H    -1.047328    -0.964810     4.664954
 C    -2.948625    -0.047006     4.202349
 H    -3.405985    -0.337544     5.151814
 C     1.953121    -2.148104     1.585786
 C     0.906439    -3.030210     1.850609
 H     0.360020    -3.477887     1.019562
 C     2.680518    -1.565411     2.624449
 H     3.498154    -0.884794     2.383123
 C     0.582877    -3.326393     3.173609
 H    -0.237448    -4.016211     3.383326
 C     2.342389    -1.865329     3.941711
 H     2.908341    -1.410096     4.757945
 C     1.294988    -2.744651     4.221276
 H     1.038162    -2.979827     5.256680
 C     4.536464    -0.224675    -0.578609
 C     4.983716     1.011981    -0.126614
 H     4.394661     1.903893    -0.350432
 C     5.249762    -1.391565    -0.311524
 H     4.867387    -2.347143    -0.671137
 C     6.164811     1.108466     0.617790
 C     6.645342     2.448419     1.094511
 H     7.070389     3.033489     0.262423
 H     5.819577     3.040284     1.517488
 H     7.425282     2.347409     1.862136
 C     6.426499    -1.299015     0.425514
 H     6.995992    -2.204701     0.647085
 C     6.878472    -0.063781     0.889364
 H     7.800704    -0.007823     1.473510
 C     1.719958     1.850377     0.666474
 C     1.748297     2.627956    -0.488230
 H     1.975620     2.166516    -1.450395
 C     1.447895     2.427594     1.907940
 H     1.432534     1.795104     2.796114
 C     1.470121     3.999550    -0.425365
 C     1.424196     4.806687    -1.689198
 H     2.276245     4.577020    -2.346414
 H     0.507104     4.576161    -2.256712
 H     1.428512     5.885731    -1.481626
 C     1.192408     3.790843     1.974566
 H     0.977465     4.249850     2.942458
 C     1.198399     4.574767     0.818989
 H     0.987205     5.645149     0.883619
