  84
scf done:    -4657.291528
 C     0.512559    -4.186992     1.294293
 H     1.161493    -4.832681     0.695262
 H     0.870902    -4.029056     2.315030
 C    -0.896373    -4.167805     1.035372
 H    -1.303166    -4.803113     0.242751
 H    -1.593572    -3.994614     1.859289
 H    -0.311155    -1.812668     1.840707
Ir    -0.018248    -2.330029     0.318451
 O     2.309401    -0.385664     1.830255
 O     3.222263    -1.761636    -0.017324
 O     1.787526     0.313376    -0.578279
 O    -1.839353    -0.435083    -1.762217
 O    -3.192888    -1.303579     0.220757
 O    -1.515971     0.594223     0.543360
 P    -1.654842    -0.870856    -0.186361
 P     1.820208    -1.031334     0.394122
 C     0.271849    -3.036382    -1.468239
 O     0.430049    -3.447525    -2.522379
 C     1.458382     0.236323     2.715688
 C     1.265427    -0.353016     3.962904
 H     1.752045    -1.305809     4.177904
 C     0.841426     1.443174     2.389624
 H     0.979870     1.875455     1.398225
 C     0.456739     0.284215     4.901525
 H     0.305237    -0.174518     5.881413
 C     0.034308     2.070013     3.336383
 H    -0.458197     3.011065     3.081840
 C    -0.157875     1.497415     4.592841
 H    -0.794472     1.994138     5.328092
 C     4.505951    -1.261749     0.031411
 C     5.140440    -1.025712     1.248882
 H     4.615753    -1.238832     2.179372
 C     5.166948    -1.024503    -1.172000
 H     4.654482    -1.237494    -2.110901
 C     6.422507    -0.483466     1.259134
 H     6.928326    -0.274665     2.203080
 C     6.444924    -0.479128    -1.164239
 H     6.960549    -0.253270    -2.098574
 C     7.061073    -0.194784     0.054482
Cl     8.633654     0.530103     0.069161
 C     2.830298     1.122528    -0.962010
 C     3.017889     1.310580    -2.330648
 H     2.341429     0.816804    -3.030875
 C     3.666242     1.753931    -0.039816
 H     3.511284     1.608815     1.028729
 C     4.075701     2.090860    -2.786253
 H     4.243291     2.233082    -3.854966
 C     4.733856     2.520340    -0.494582
 H     5.419851     2.987220     0.213470
 C     4.941907     2.676531    -1.864432
Cl     6.298597     3.593758    -2.425169
 C    -1.973029     0.848667    -2.243347
 C    -0.875226     1.708813    -2.213593
 H     0.061398     1.357000    -1.779309
 C    -3.193120     1.259116    -2.775367
 H    -4.035665     0.567116    -2.789085
 C    -1.010114     3.002528    -2.711434
 H    -0.152377     3.678862    -2.683754
 C    -3.313645     2.555754    -3.273548
 H    -4.270084     2.881322    -3.689096
 C    -2.229076     3.431932    -3.239112
 H    -2.331711     4.447494    -3.627672
 C    -4.333733    -1.079967    -0.509140
 C    -4.585164    -1.849083    -1.645581
 H    -3.859451    -2.603218    -1.953436
 C    -5.250812    -0.117408    -0.090845
 H    -5.049698     0.466771     0.807036
 C    -5.744231    -1.636375    -2.384914
 H    -5.948467    -2.224802    -3.280615
 C    -6.413010     0.095166    -0.826701
 H    -7.135460     0.849821    -0.512470
 C    -6.650924    -0.658006    -1.975597
Cl    -8.088338    -0.381053    -2.901321
 C    -2.475455     1.308567     1.206584
 C    -2.934523     0.865893     2.446743
 H    -2.538722    -0.060905     2.864181
 C    -2.941685     2.501591     0.658145
 H    -2.567137     2.830888    -0.312137
 C    -3.886379     1.610288     3.135342
 H    -4.259799     1.275365     4.104168
 C    -3.888922     3.251837     1.349961
 H    -4.268477     4.185496     0.932316
 C    -4.362437     2.799699     2.581488
Cl    -5.550270     3.726767     3.436334
