  94
scf done:    -2826.002132
 C    -1.327342    -0.961328    -3.063962
 H    -1.858221    -1.918267    -3.113261
 H    -1.967368    -0.104295    -3.296328
 C     0.062804    -0.923688    -3.432593
 H     0.538082    -1.859768    -3.747238
 H     0.457059    -0.049299    -3.959975
 H    -0.319779     0.914365    -1.717845
Ir    -0.141575    -0.647945    -1.301251
 C    -2.849804     1.321883    -0.454251
 C    -3.075288    -1.421550     0.549144
 C    -1.511188     0.353301     1.946508
 C     2.139427    -0.077511     1.469028
 C     3.389682    -0.911688    -0.933296
 C     2.522962     1.695897    -0.839232
 P     1.895070     0.028570    -0.354905
 P    -1.848572    -0.081844     0.190680
 C     0.117881    -2.507222    -0.894284
 O     0.290977    -3.629201    -0.704879
 C    -2.260843     2.603214    -0.482440
 O    -1.022289     2.692052     0.028390
 C    -0.271227     3.855104    -0.190145
 H     0.753567     3.617163     0.112050
 H    -0.264922     4.135125    -1.255716
 H    -0.655430     4.703897     0.403925
 C    -4.103380     1.164759    -1.082048
 O    -4.579715    -0.084709    -1.177888
 C    -5.849488    -0.329438    -1.707045
 H    -6.007990    -1.412352    -1.624400
 H    -5.916253    -0.034301    -2.768843
 H    -6.637994     0.193125    -1.138096
 C    -4.789810     2.267830    -1.608766
 H    -5.766793     2.139181    -2.072450
 C    -2.938792     3.706553    -1.015718
 H    -2.482300     4.695134    -1.008196
 C    -4.203912     3.525934    -1.560902
 H    -4.739497     4.384229    -1.973575
 C    -3.105565    -2.573845    -0.237392
 C    -3.981520    -1.299473     1.609488
 C    -4.934360    -3.454311     1.072737
 C    -4.907948    -2.306204     1.865560
 C    -4.028436    -3.585937     0.022166
 H    -2.409803    -2.662350    -1.072245
 H    -4.035311    -4.483838    -0.600803
 H    -5.656217    -4.248407     1.279874
 H    -5.610680    -2.196742     2.695493
 H    -3.963754    -0.409035     2.241944
 C    -1.979021     1.496308     2.597773
 C    -0.837904    -0.626991     2.686617
 C    -1.122331     0.666854     4.703460
 C    -0.655249    -0.477789     4.056849
 C    -1.778240     1.653920     3.970280
 H    -2.526430     2.257722     2.040115
 H    -2.155570     2.549434     4.471356
 H    -0.975990     0.787358     5.779729
 H    -0.134731    -1.255164     4.619516
 H    -0.472662    -1.524138     2.178638
 C     2.021590     0.983157     2.387383
 O     1.574005     2.161714     1.920025
 C     1.446796     3.237605     2.809012
 H     1.078099     4.086123     2.221914
 H     0.720009     3.012155     3.606549
 H     2.416469     3.513531     3.258063
 C     2.410028    -1.361894     1.990367
 O     2.306396    -2.367176     1.108395
 C     2.779690    -3.648029     1.420746
 H     2.629605    -4.254267     0.519772
 H     2.211984    -4.099957     2.251854
 H     3.852416    -3.625151     1.676519
 C     2.746448    -1.555737     3.333106
 H     2.993516    -2.548063     3.708209
 C     2.364984     0.798697     3.735227
 H     2.306521     1.626571     4.438903
 C     2.743165    -0.458200     4.186599
 H     3.008243    -0.592239     5.238032
 C     3.303194    -1.655060    -2.110072
 C     4.614307    -0.850517    -0.256674
 C     5.631115    -2.277640    -1.921335
 C     5.725019    -1.532590    -0.744331
 C     4.418508    -2.333620    -2.603049
 H     2.345175    -1.696983    -2.631425
 H     4.333389    -2.913305    -3.525619
 H     6.504090    -2.812174    -2.304016
 H     6.672667    -1.481702    -0.201926
 H     4.699176    -0.281334     0.671911
 C     2.064875     2.251192    -2.035877
 C     3.536039     2.357066    -0.132809
 C     3.575821     4.119658    -1.786496
 C     4.049411     3.564482    -0.596196
 C     2.589958     3.453703    -2.509492
 H     1.275202     1.733251    -2.584155
 H     2.218688     3.872175    -3.448335
 H     3.982982     5.066122    -2.150866
 H     4.830982     4.073821    -0.026773
 H     3.926252     1.930925     0.793225
