 104
scf done:    -2832.895616
 C    -1.507318    -2.176416    -3.461536
 H    -1.909730    -3.170445    -3.239156
 H    -2.226916    -1.523607    -3.965490
 C    -0.106926    -2.051295    -3.790251
 H     0.511600    -2.955282    -3.811770
 H     0.197713    -1.305875    -4.531302
 H    -0.779115     0.157043    -2.677034
Ir    -0.465137    -1.220125    -1.840126
 O    -1.827281     1.330151    -0.318290
 C    -3.767295    -0.583603    -0.893657
 C    -1.906246    -0.764717     1.409259
 O     1.498131    -0.302446     0.658138
 C     2.976354    -0.635227    -1.732164
 C     1.327265     1.755094    -1.148655
 P     1.353988    -0.096267    -1.003669
 P    -2.003389    -0.336482    -0.385686
 C     0.009160    -2.889529    -1.011164
 O     0.385470    -3.891811    -0.594565
 C    -2.673558     2.311912     0.108174
 C    -3.028875     3.292617    -0.820234
 H    -2.659742     3.197547    -1.843181
 C    -3.107696     2.410003     1.431651
 H    -2.813014     1.658085     2.162555
 C    -3.834267     4.358282    -0.429587
 H    -4.106764     5.123873    -1.160172
 C    -3.926898     3.471447     1.808164
 H    -4.276581     3.535009     2.841067
 C    -4.291469     4.450010     0.884954
 H    -4.924091     5.285917     1.191502
 H    -3.793162    -0.193446    -1.922836
 H    -3.837512    -1.679181    -0.995529
 C    -4.889892    -0.025470    -0.068697
 C    -5.256670    -0.600750     1.155582
 H    -4.748983    -1.497821     1.517186
 C    -5.610754     1.083151    -0.523508
 H    -5.345821     1.526001    -1.487524
 C    -6.285345    -0.046193     1.912119
 H    -6.562343    -0.502540     2.865634
 C    -6.652953     1.647419     0.217142
 C    -7.391752     2.848425    -0.295693
 H    -6.828572     3.769648    -0.075820
 H    -7.525623     2.802178    -1.386478
 H    -8.383652     2.941536     0.169028
 C    -6.973705     1.073535     1.452141
 H    -7.784638     1.498617     2.049832
 H    -1.077735    -0.136759     1.769948
 H    -2.829799    -0.434673     1.910340
 C    -1.608762    -2.204727     1.704957
 C    -2.450053    -3.239436     1.281483
 H    -3.351172    -3.019516     0.705323
 C    -0.456641    -2.534728     2.428292
 H     0.211320    -1.732370     2.752013
 C    -2.139470    -4.564232     1.580074
 H    -2.799468    -5.365030     1.238168
 C    -0.133053    -3.856702     2.741676
 C     1.108084    -4.187909     3.517583
 H     1.640441    -3.281805     3.836520
 H     0.870245    -4.783859     4.412789
 H     1.805257    -4.784312     2.907289
 C    -0.992614    -4.871541     2.303717
 H    -0.755352    -5.914750     2.530020
 C     2.559456    -0.739096     1.387930
 C     3.190879     0.145100     2.266180
 H     2.843966     1.177220     2.319313
 C     2.972570    -2.072428     1.310294
 H     2.433529    -2.767092     0.663050
 C     4.259214    -0.302570     3.038440
 H     4.754202     0.393757     3.719895
 C     4.054136    -2.503536     2.077501
 H     4.380441    -3.543893     2.006891
 C     4.705682    -1.621738     2.939239
 H     5.551052    -1.964091     3.540076
 H     3.168597    -1.635006    -1.313804
 H     2.686295    -0.800754    -2.781485
 C     4.185450     0.246005    -1.651415
 C     4.442982     1.172312    -2.671785
 H     3.773627     1.226939    -3.534918
 C     5.081670     0.165675    -0.581838
 H     4.911991    -0.571536     0.204578
 C     5.553313     2.009006    -2.600899
 H     5.748121     2.723549    -3.404239
 C     6.194421     1.007144    -0.487492
 C     7.096215     0.927068     0.708907
 H     6.626656     1.418051     1.577417
 H     7.285034    -0.117080     0.998764
 H     8.061875     1.419136     0.525445
 C     6.419938     1.933899    -1.511609
 H     7.289948     2.594432    -1.460873
 H     1.900544     2.003719    -2.054628
 H     0.270376     1.981752    -1.341920
 C     1.814624     2.519699     0.046069
 C     0.940081     2.755605     1.113846
 H    -0.086516     2.391843     1.052262
 C     3.125933     2.998797     0.133030
 H     3.815904     2.823340    -0.694591
 C     1.378179     3.445574     2.240843
 H     0.686810     3.624528     3.068078
 C     3.581351     3.693723     1.258297
 C     4.988003     4.215886     1.320321
 H     5.606097     3.787058     0.519712
 H     5.008686     5.312695     1.210157
 H     5.461885     3.980714     2.285940
 C     2.690816     3.906928     2.317645
 H     3.028718     4.445415     3.207773
