 110
scf done:    -2611.683453
 C     0.666507    -2.090244    -2.915295
 H     1.364063    -1.714242    -3.670177
 H     0.948739    -3.068372    -2.514027
 C    -0.725158    -1.766392    -3.050883
 H    -1.037000    -1.144344    -3.896470
 H    -1.477776    -2.502956    -2.755925
 H    -0.234641    -2.021043    -0.525687
Ir     0.108249    -0.667634    -1.383621
 O     1.791184    -1.666786     1.377108
 C     3.376863    -1.620861    -0.662266
 C     2.567504     0.907966     0.782695
 O    -1.678966     1.229444     0.986896
 C    -2.855485     1.185745    -1.498246
 C    -2.824187    -1.042410     0.551659
 P    -1.778795     0.186698    -0.349890
 P     1.947896    -0.674729     0.033378
 C     0.534863     0.879292    -2.423904
 O     0.781910     1.809618    -3.057587
 C     0.705377    -1.806797     2.178073
 C     0.250664    -3.102196     2.438288
 H     0.733900    -3.936447     1.926951
 C     0.082703    -0.723994     2.797226
 H     0.405931     0.292673     2.573650
 C    -0.785657    -3.307673     3.341321
 H    -1.123819    -4.328434     3.541580
 C    -0.957181    -0.946314     3.698360
 H    -1.437003    -0.087527     4.175758
 C    -1.402523    -2.235952     4.001946
 C    -2.481619    -2.476254     5.017742
 H    -3.056079    -1.561401     5.221570
 H    -2.054634    -2.817353     5.975684
 H    -3.186441    -3.252977     4.683844
 H     2.858287    -2.582119    -0.844160
 C     4.552114    -1.904140     0.273082
 H     4.187803    -2.249074     1.251618
 H     5.118257    -0.972456     0.445779
 C     5.482700    -2.940769    -0.352798
 H     6.343068    -3.125296     0.311131
 H     4.942822    -3.901390    -0.435249
 C     5.961059    -2.510595    -1.735819
 H     6.588055    -3.296785    -2.187033
 H     6.608403    -1.620583    -1.631511
 C     4.792144    -2.166635    -2.653992
 H     4.206676    -3.079693    -2.864899
 H     5.162165    -1.803230    -3.626433
 C     3.875603    -1.124784    -2.020436
 H     4.439465    -0.186885    -1.894414
 H     3.024588    -0.897687    -2.677000
 H     1.632551     1.470582     0.960588
 C     3.398745     1.723077    -0.212369
 H     2.866742     1.832975    -1.170689
 H     4.334887     1.181579    -0.427058
 C     3.748780     3.094854     0.355355
 H     4.381113     3.643896    -0.361250
 H     2.820691     3.676538     0.469792
 C     4.443233     2.984292     1.707431
 H     4.639100     3.987892     2.120037
 H     5.431604     2.507266     1.573745
 C     3.618448     2.156347     2.686577
 H     2.671130     2.682307     2.901700
 H     4.148370     2.054010     3.647596
 C     3.299508     0.775871     2.119831
 H     4.236785     0.214255     1.980003
 H     2.699964     0.195526     2.835651
 C    -0.923814     2.340481     1.108691
 C    -0.665519     2.788959     2.410792
 H    -1.071239     2.218156     3.247972
 C    -0.430638     3.078957     0.029744
 H    -0.623575     2.762218    -0.993657
 C     0.071854     3.947109     2.622053
 H     0.257614     4.278680     3.647697
 C     0.304400     4.240966     0.260789
 H     0.675720     4.803719    -0.600098
 C     0.576811     4.698891     1.552366
 C     1.407040     5.925886     1.792906
 H     1.491207     6.539169     0.884589
 H     2.430920     5.657876     2.105087
 H     0.980153     6.554050     2.589315
 H    -2.107235     1.700779    -2.129128
 C    -3.743831     2.264028    -0.875118
 H    -3.159263     2.916541    -0.210865
 H    -4.518683     1.796240    -0.248341
 C    -4.410644     3.093742    -1.969806
 H    -5.066078     3.854924    -1.516292
 H    -3.631758     3.647496    -2.525114
 C    -5.198947     2.222963    -2.942240
 H    -5.636395     2.840086    -3.743761
 H    -6.049003     1.762522    -2.406283
 C    -4.328699     1.119662    -3.533542
 H    -3.545909     1.569962    -4.170322
 H    -4.925929     0.466905    -4.190729
 C    -3.662892     0.289374    -2.440835
 H    -4.443280    -0.236191    -1.864692
 H    -3.015114    -0.483325    -2.879974
 H    -2.138776    -1.293213     1.381657
 C    -3.093992    -2.342087    -0.207204
 H    -2.150033    -2.735704    -0.609782
 H    -3.756665    -2.152222    -1.067949
 C    -3.745598    -3.368365     0.714660
 H    -3.954048    -4.294664     0.154931
 H    -3.026230    -3.635035     1.509062
 C    -5.022407    -2.829954     1.349969
 H    -5.454440    -3.574077     2.039292
 H    -5.778479    -2.663546     0.560638
 C    -4.763068    -1.517059     2.079022
 H    -4.096589    -1.704021     2.937311
 H    -5.701368    -1.111637     2.492006
 C    -4.109298    -0.485025     1.165227
 H    -4.818863    -0.224084     0.361356
 H    -3.893735     0.439544     1.720242
