  92
scf done:    -3594.697367
 C     0.158737    -3.617682    -1.353320
 H    -0.070480    -4.395698    -0.618025
 H    -0.524912    -3.614485    -2.207200
 C     1.521492    -3.202173    -1.536894
 H     2.303860    -3.685601    -0.941829
 H     1.860202    -2.889813    -2.529180
 H     0.064768    -1.148644    -2.034712
Ir     0.417642    -1.651379    -0.509329
 O    -2.290727     0.170479    -1.124684
 C    -2.970866    -2.272429    -0.176988
 C    -2.092624    -0.191549     1.588847
 O     2.146222     0.836824     1.042621
 C     3.132508     0.402573    -1.463410
 C     0.728581     1.848382    -0.962641
 P     1.597612     0.320943    -0.483104
 P    -1.716539    -0.961387    -0.018295
 C     0.861685    -2.310630     1.233035
 O     1.124910    -2.700821     2.282025
 C    -3.270556     1.079006    -0.849667
 C    -2.944204     2.265108    -0.188231
 H    -1.914472     2.431867     0.128785
 C    -4.584875     0.845274    -1.255459
 H    -4.831206    -0.086723    -1.765545
 C    -3.925931     3.213975     0.069363
 H    -3.678582     4.139743     0.591268
 C    -5.572407     1.794836    -1.001491
 H    -6.603247     1.623180    -1.315269
 C    -5.238382     2.973544    -0.337848
Cl    -6.465899     4.156884    -0.016746
 C    -3.518258    -2.554252    -1.433185
 H    -3.257169    -1.922908    -2.286018
 C    -3.275330    -3.117089     0.896223
 H    -2.838989    -2.929628     1.880932
 C    -4.374803    -3.637851    -1.601510
 H    -4.793995    -3.842277    -2.590789
 C    -4.129612    -4.200770     0.717635
 H    -4.357395    -4.848984     1.568519
 C    -4.701299    -4.477905    -0.530208
 C    -5.648632    -5.627698    -0.707429
 H    -5.391008    -6.467954    -0.046349
 H    -6.681855    -5.326895    -0.465011
 H    -5.649294    -5.993768    -1.744143
 C    -3.405623    -0.070467     2.069347
 H    -4.233626    -0.517881     1.515094
 C    -1.053102     0.403807     2.310228
 H    -0.024634     0.332368     1.948254
 C    -3.663916     0.631815     3.238748
 H    -4.694430     0.724716     3.592438
 C    -1.321602     1.107069     3.481976
 H    -0.495246     1.568531     4.029174
 C    -2.627304     1.235019     3.965757
 C    -2.918327     1.978332     5.235219
 H    -2.062920     2.592019     5.549991
 H    -3.793028     2.636360     5.121588
 H    -3.145348     1.277479     6.055502
 C     3.436328     0.683890     1.460912
 C     4.393194     1.648998     1.139027
 H     4.099711     2.513476     0.542116
 C     3.796139    -0.427733     2.223560
 H     3.040445    -1.170038     2.481898
 C     5.709727     1.496067     1.558624
 H     6.465692     2.240058     1.303114
 C     5.112528    -0.582797     2.650073
 H     5.404536    -1.449490     3.245114
 C     6.064955     0.375309     2.308441
Cl     7.708742     0.175013     2.823649
 C     3.980786    -0.711757    -1.440764
 H     3.655572    -1.614896    -0.918883
 C     3.537805     1.549096    -2.152834
 H     2.887875     2.426760    -2.183677
 C     5.219335    -0.665214    -2.066759
 H     5.876711    -1.537977    -2.024100
 C     4.772957     1.579859    -2.795801
 H     5.075828     2.481682    -3.335029
 C     5.638127     0.481282    -2.756145
 C     6.971323     0.513108    -3.442458
 H     7.209310     1.517373    -3.819515
 H     7.776825     0.203440    -2.758820
 H     6.990416    -0.180707    -4.298592
 C     0.777008     3.005214    -0.179173
 H     1.339544     2.996007     0.755937
 C    -0.004312     1.867122    -2.155967
 H    -0.072811     0.961643    -2.762326
 C     0.101677     4.156466    -0.583799
 H     0.141660     5.050333     0.045081
 C    -0.664926     3.021961    -2.554513
 H    -1.240368     3.015498    -3.484048
 C    -0.633464     4.185228    -1.772855
 C    -1.419329     5.396637    -2.174831
 H    -1.354655     5.579774    -3.257650
 H    -2.486675     5.256438    -1.932880
 H    -1.073953     6.298481    -1.649949
