 102
scf done:    -3055.122071
 C     1.006933    -4.091146     1.261545
 H     1.708162    -4.660843     0.644596
 H     1.359676    -3.921093     2.282176
 C    -0.399738    -4.198786     1.011670
 H    -0.751423    -4.854061     0.208931
 H    -1.104868    -4.105391     1.842030
 H    -0.036581    -1.810337     1.859095
Ir     0.300664    -2.273067     0.327510
 O     2.250977     0.162719     1.721393
 O     3.503497    -1.505948     0.380127
 O     2.064811     0.270443    -0.835891
 O    -1.912236    -0.857255    -1.719177
 O    -2.929350    -1.507215     0.538421
 O    -1.466233     0.536922     0.400722
 P    -1.508203    -1.014981    -0.131345
 P     2.026513    -0.818067     0.410147
 C     0.647487    -2.888119    -1.477472
 O     0.838551    -3.234817    -2.550267
 C     1.232308     0.932493     2.242746
 C     0.562509     0.493124     3.380930
 H     0.845904    -0.460008     3.829497
 C     0.898693     2.151315     1.657106
 H     1.419940     2.487171     0.760484
 C    -0.458784     1.273639     3.917127
 H    -0.984183     0.923569     4.810315
 C    -0.122330     2.918864     2.205908
 H    -0.391212     3.863638     1.726308
 C    -0.829610     2.490871     3.334493
 C    -1.973278     3.300214     3.870740
 H    -2.870064     3.162897     3.243497
 H    -1.740524     4.375557     3.876027
 H    -2.236021     3.002028     4.895930
 C     4.756613    -0.938757     0.481600
 C     5.200121    -0.369451     1.671089
 H     4.541040    -0.356281     2.538686
 C     5.592030    -0.991220    -0.631797
 H     5.226512    -1.458370    -1.547289
 C     6.469946     0.202990     1.716251
 H     6.811346     0.661985     2.648274
 C     6.854382    -0.415572    -0.567979
 H     7.496548    -0.442477    -1.452716
 C     7.312966     0.206721     0.600708
 C     8.656928     0.874647     0.638470
 H     9.423891     0.269363     0.132004
 H     8.991106     1.052838     1.670405
 H     8.626495     1.852331     0.128257
 C     3.133841     1.006360    -1.295829
 C     3.463037     0.879772    -2.642259
 H     2.868940     0.210861    -3.267974
 C     3.863711     1.864579    -0.472650
 H     3.611951     1.956416     0.583110
 C     4.549732     1.583637    -3.155180
 H     4.808139     1.470104    -4.211632
 C     4.951342     2.551313    -0.999846
 H     5.534309     3.200003    -0.340481
 C     5.323739     2.418733    -2.342995
 C     6.536878     3.123510    -2.875937
 H     6.536048     3.158055    -3.974609
 H     7.459263     2.606135    -2.561976
 H     6.602044     4.156414    -2.501989
 C    -3.183614    -0.802558    -2.243425
 C    -3.708973     0.409306    -2.683941
 H    -3.116250     1.319857    -2.594195
 C    -3.927315    -1.975935    -2.359964
 H    -3.498624    -2.916010    -2.009083
 C    -4.994118     0.440555    -3.219723
 H    -5.404049     1.397790    -3.553299
 C    -5.210237    -1.925787    -2.896268
 H    -5.791788    -2.848608    -2.972822
 C    -5.770999    -0.718136    -3.332136
 C    -7.146415    -0.676632    -3.932477
 H    -7.810770    -1.422295    -3.471656
 H    -7.113099    -0.893985    -5.013321
 H    -7.608716     0.313789    -3.812687
 C    -3.820978    -0.706123     1.213161
 C    -5.036462    -0.367762     0.625832
 H    -5.268836    -0.724760    -0.378129
 C    -3.504821    -0.250657     2.492527
 H    -2.539799    -0.513087     2.928550
 C    -5.929175     0.443302     1.324661
 H    -6.878055     0.713891     0.853516
 C    -4.406063     0.559817     3.173537
 H    -4.145778     0.922517     4.171723
 C    -5.633175     0.926862     2.603622
 C    -6.604000     1.789040     3.357508
 H    -6.088463     2.593901     3.903030
 H    -7.163374     1.199340     4.102840
 H    -7.340242     2.250746     2.684260
 C    -1.748296     1.687013    -0.285058
 C    -2.863921     2.438670     0.071264
 H    -3.523372     2.077207     0.861306
 C    -0.890076     2.124231    -1.293422
 H    -0.014160     1.523486    -1.545747
 C    -3.124095     3.630986    -0.600443
 H    -4.006241     4.214588    -0.322888
 C    -1.169832     3.315065    -1.956530
 H    -0.497670     3.649874    -2.751572
 C    -2.289409     4.091210    -1.625630
 C    -2.563828     5.387200    -2.332569
 H    -1.912425     6.192523    -1.953863
 H    -3.604423     5.711597    -2.189735
 H    -2.378137     5.303824    -3.413935
