  90
scf done:    -4735.872725
 C    -0.759921    -3.261044     1.877552
 H    -0.246499    -4.173725     1.561000
 H    -0.495466    -2.932191     2.886369
 C    -2.066490    -2.974970     1.367789
 H    -2.538935    -3.671360     0.668553
 H    -2.781611    -2.435569     1.994171
 H    -0.948821    -0.702853     1.733146
Ir    -0.630981    -1.647761     0.438650
 O     2.086773    -0.375112     2.028055
 O     2.614749    -2.064961     0.298952
 O     1.922335     0.324627    -0.423317
 O    -1.480603     0.060335    -2.284098
 O    -3.361819     0.092485    -0.543622
 O    -1.413744     1.541608    -0.235167
 P    -1.715231    -0.012892    -0.657968
 P     1.494511    -0.910444     0.585324
 C    -0.332569    -2.840322    -1.064183
 O    -0.166850    -3.535441    -1.955918
 C     1.406997     0.417536     2.920833
 C     0.654206     1.514956     2.506279
 H     0.536298     1.729646     1.442284
 C     1.544931     0.082258     4.275368
 C     2.342464    -1.121431     4.671811
 H     1.977327    -2.024035     4.157741
 H     3.402223    -1.009966     4.391668
 H     2.290489    -1.289774     5.755718
 C     0.035299     2.319101     3.462971
 H    -0.552580     3.180507     3.139547
 C     0.911400     0.905638     5.209040
 H     1.005682     0.662796     6.270866
 C     0.166016     2.016959     4.815348
 H    -0.315324     2.644897     5.568198
 C     3.948747    -1.926067    -0.001905
 C     4.833382    -1.261758     0.846717
 H     4.468534    -0.845372     1.785339
 C     4.394803    -2.487098    -1.196230
 H     3.681676    -3.020158    -1.827782
 C     6.157952    -1.093821     0.457972
 H     6.855201    -0.541426     1.089342
 C     5.723572    -2.334588    -1.578456
 H     6.085320    -2.753449    -2.518722
 C     6.593778    -1.617439    -0.758820
Cl     8.229298    -1.358391    -1.264314
 C     3.129077     0.982766    -0.520431
 C     3.892574     0.788619    -1.670518
 H     3.520766     0.119936    -2.447649
 C     3.566270     1.847975     0.480435
 H     2.951418     2.024007     1.362976
 C     5.131211     1.405383    -1.794386
 H     5.755386     1.231867    -2.671979
 C     4.805144     2.471215     0.356348
 H     5.168388     3.138777     1.139140
 C     5.590028     2.233611    -0.769857
Cl     7.153036     2.967091    -0.898067
 C    -1.878665     1.145287    -3.043843
 C    -3.216068     1.299257    -3.397315
 H    -3.947921     0.562175    -3.065153
 C    -0.892404     2.057871    -3.445516
 C     0.533567     1.855690    -3.041546
 H     0.640742     1.881693    -1.947255
 H     0.896896     0.866761    -3.360393
 H     1.182722     2.626748    -3.477081
 C    -3.600397     2.399338    -4.161147
 H    -4.649603     2.527127    -4.435899
 C    -1.307023     3.148832    -4.216311
 H    -0.557289     3.874425    -4.542943
 C    -2.644823     3.327433    -4.568308
 H    -2.938792     4.191947    -5.167714
 C    -4.177300    -1.004287    -0.551883
 C    -5.197472    -1.061143     0.395871
 H    -5.299413    -0.242100     1.109898
 C    -4.017916    -2.030759    -1.483692
 H    -3.223499    -1.973308    -2.230309
 C    -6.059428    -2.151717     0.421069
 H    -6.861564    -2.210684     1.158235
 C    -4.874416    -3.128088    -1.453684
 H    -4.757719    -3.941292    -2.171589
 C    -5.889225    -3.185717    -0.500365
Cl    -6.953788    -4.551507    -0.461716
 C    -2.312857     2.466191     0.241098
 C    -2.837705     2.331613     1.525052
 H    -2.556752     1.469524     2.132785
 C    -2.646931     3.555797    -0.557542
 H    -2.233698     3.630064    -1.565090
 C    -3.705448     3.300864     2.018242
 H    -4.125176     3.213270     3.021585
 C    -3.511215     4.528779    -0.063465
 H    -3.784248     5.389564    -0.675534
 C    -4.037088     4.396520     1.220903
Cl    -5.116244     5.605475     1.834879
