  98
scf done:    -2754.322613
 C    -0.394305    -2.478072    -2.778177
 H    -0.757858    -3.492243    -2.580659
 H    -1.012403    -1.930785    -3.497028
 C     1.025179    -2.231445    -2.750443
 H     1.704554    -3.061677    -2.531382
 H     1.453146    -1.504075    -3.447350
 H    -0.096764    -0.053937    -2.046412
Ir     0.105951    -1.321948    -1.030434
 O    -2.137469     0.999663    -0.613042
 C    -3.355888    -1.514833    -0.762507
 C    -2.121722    -0.489540     1.691328
 O     0.754219     1.038992     1.152224
 C     3.005883    -0.484296     0.997125
 C     2.279220     1.378673    -1.181634
 P     1.575937     0.116509    -0.011377
 P    -1.882007    -0.575257    -0.145006
 C     0.362120    -2.904241     0.034258
 O     0.547291    -3.893684     0.586520
 C    -3.215343     1.836960    -0.608899
 C    -3.949755     2.129235     0.538552
 H    -3.701079     1.647558     1.482950
 C    -3.491058     2.471394    -1.831924
 C    -2.658293     2.146726    -3.032829
 H    -1.594122     2.359677    -2.846508
 H    -2.706391     1.072828    -3.275908
 H    -2.986084     2.719209    -3.911016
 C    -5.010290     3.029258     0.466287
 H    -5.596691     3.240785     1.363097
 C    -4.551229     3.378654    -1.872463
 H    -4.781574     3.875671    -2.818973
 C    -5.316084     3.654471    -0.739616
 H    -6.145879     4.362116    -0.798668
 H    -3.193976    -2.523015    -0.345297
 H    -3.178660    -1.604026    -1.844720
 C    -4.731044    -0.994831    -0.473102
 C    -5.399957    -0.215795    -1.426104
 H    -4.923561    -0.026600    -2.390945
 C    -5.373779    -1.243473     0.746126
 H    -4.895738    -1.881282     1.493252
 C    -6.649161     0.332408    -1.156009
 H    -7.141915     0.950521    -1.909512
 C    -6.626162    -0.696526     1.020502
 H    -7.107588    -0.902130     1.979634
 C    -7.264263     0.101421     0.073920
 H    -8.243328     0.535259     0.289683
 H    -3.193985    -0.381563     1.912434
 H    -1.607853     0.441232     1.970622
 C    -1.520047    -1.651568     2.421513
 C    -0.251516    -1.530216     3.003675
 H     0.270034    -0.575064     2.922627
 C    -2.181947    -2.881079     2.521722
 H    -3.174120    -3.003191     2.080265
 C     0.336190    -2.603958     3.666377
 H     1.326210    -2.488740     4.115079
 C    -1.593801    -3.958432     3.181047
 H    -2.125852    -4.910512     3.243830
 C    -0.331439    -3.824418     3.754470
 H     0.132346    -4.670355     4.266561
 C     1.173897     2.165131     1.800278
 C     1.970044     2.048408     2.945087
 H     2.249903     1.053827     3.295172
 C     0.735162     3.424268     1.353405
 C    -0.186034     3.570119     0.178943
 H    -0.537797     2.596205    -0.181204
 H    -1.071490     4.164180     0.452518
 H     0.309283     4.098531    -0.651917
 C     2.397419     3.184640     3.623312
 H     3.027716     3.083396     4.509647
 C     1.179986     4.550572     2.057528
 H     0.855357     5.537968     1.717383
 C     2.011511     4.445215     3.168552
 H     2.343548     5.345403     3.690345
 H     2.542950    -1.137861     1.755289
 H     3.441353     0.383856     1.512558
 C     4.081156    -1.213196     0.240669
 C     5.360872    -0.656747     0.134018
 H     5.562816     0.317373     0.586712
 C     3.846152    -2.462328    -0.347656
 H     2.863695    -2.923771    -0.257306
 C     6.374024    -1.320328    -0.553467
 H     7.363476    -0.862627    -0.626642
 C     4.856412    -3.124608    -1.040738
 H     4.650325    -4.097436    -1.493589
 C     6.124160    -2.554645    -1.149858
 H     6.916937    -3.075297    -1.692506
 H     1.518509     2.174170    -1.199584
 H     2.199611     0.870817    -2.152392
 C     3.663687     1.933745    -1.014258
 C     4.642012     1.610781    -1.963356
 H     4.382348     0.943937    -2.789617
 C     4.021981     2.781294     0.042499
 H     3.279428     3.069090     0.787294
 C     5.938633     2.106648    -1.860166
 H     6.683034     1.834648    -2.612233
 C     5.322388     3.269757     0.154790
 H     5.577461     3.925830     0.990605
 C     6.287595     2.933700    -0.793977
 H     7.305761     3.320150    -0.705418
