  80
scf done:    -4554.883040
 C     1.745342    -2.337235    -2.388243
 H     2.313670    -1.934819    -3.232912
 H     2.344675    -2.951550    -1.711346
 C     0.358547    -2.660160    -2.568445
 H    -0.094657    -2.491748    -3.551563
 H    -0.066319    -3.513386    -2.032205
 H     0.599572    -1.990870    -0.117472
Ir     0.534929    -0.893908    -1.329803
 O     2.469268    -0.328391     1.430504
 C     3.702584     0.588832    -0.782075
 C     1.609433     1.960549     0.551155
 O    -1.774433     1.330041    -0.550119
 C    -2.982054    -1.108835    -0.774418
 C    -1.435204    -0.422133     1.518216
 P    -1.419470    -0.296639    -0.301089
 P     2.047282     0.294423    -0.057915
 C     0.291893     0.281332    -2.835445
 O     0.071510     0.962735    -3.733274
 C     2.553487    -1.664102     1.708627
 C     3.340402    -2.528044     0.946560
 H     3.893768    -2.144534     0.087479
 C     1.846870    -2.139195     2.811441
 H     1.236052    -1.442740     3.386413
 C     3.408689    -3.877322     1.283709
 H     4.010883    -4.577395     0.702043
 C     1.918912    -3.485152     3.156096
 H     1.372941    -3.880370     4.014606
 C     2.695774    -4.340248     2.383216
 F     2.760825    -5.632352     2.705259
 C     4.817272     0.788652     0.041860
 H     4.704864     0.740670     1.127380
 C     3.861091     0.634920    -2.169130
 H     2.999048     0.454342    -2.814832
 C     6.069646     1.031570    -0.510003
 H     6.944268     1.179903     0.125346
 C     5.107145     0.892421    -2.733849
 H     5.235263     0.931502    -3.816598
 C     6.205691     1.087116    -1.898374
Cl     7.761279     1.392029    -2.589605
 C     0.870312     2.807105    -0.279965
 H     0.574205     2.474931    -1.276062
 C     1.944110     2.389149     1.841417
 H     2.503108     1.725776     2.502802
 C     0.458412     4.058988     0.165372
 H    -0.133218     4.713191    -0.476361
 C     1.532165     3.636354     2.299920
 H     1.778939     3.972088     3.308570
 C     0.785282     4.462840     1.459189
Cl     0.250216     6.004147     2.034545
 C    -3.032837     1.868206    -0.529382
 C    -3.544397     2.443334     0.634449
 H    -2.941083     2.453276     1.542303
 C    -3.792332     1.862850    -1.701367
 H    -3.370321     1.414570    -2.602486
 C    -4.822433     2.998312     0.631090
 H    -5.245342     3.455655     1.527284
 C    -5.069724     2.412001    -1.708968
 H    -5.684276     2.412838    -2.610767
 C    -5.571946     2.969736    -0.538308
 F    -6.796759     3.493223    -0.539876
 C    -3.042113    -1.767129    -2.006172
 H    -2.127817    -1.856989    -2.598155
 C    -4.145021    -1.003981     0.002640
 H    -4.118291    -0.491965     0.966899
 C    -4.239633    -2.304955    -2.468363
 H    -4.291013    -2.821314    -3.428051
 C    -5.346669    -1.536580    -0.447190
 H    -6.256190    -1.451658     0.149212
 C    -5.386312    -2.181388    -1.685049
Cl    -6.880392    -2.840394    -2.250947
 C    -1.024758     0.660959     2.301317
 H    -0.774805     1.611373     1.826597
 C    -1.724673    -1.643175     2.138698
 H    -2.027300    -2.504879     1.538470
 C    -0.913934     0.535957     3.683367
 H    -0.586440     1.378412     4.294606
 C    -1.624293    -1.778392     3.518832
 H    -1.848979    -2.728308     4.006260
 C    -1.216050    -0.685245     4.284226
Cl    -1.049413    -0.860623     5.997606
