 106
scf done:    -2459.339643
 C    -0.774991    -2.922342    -2.441026
 H    -1.201857    -3.846392    -2.036882
 H    -1.423574    -2.434639    -3.175760
 C     0.655434    -2.834543    -2.611232
 H     1.274580    -3.694173    -2.332907
 H     1.051250    -2.280054    -3.467520
 H    -0.150421    -0.441122    -2.156184
Ir     0.034944    -1.574069    -0.976419
 O    -1.344885     1.220498     0.060107
 C    -3.289387    -0.481379    -0.989930
 C    -2.194826    -0.777616     1.691984
 O     1.478529    -0.029101     1.515934
 C     3.431826    -0.840611    -0.254159
 C     1.800505     1.463951    -0.824092
 P     1.706951    -0.231523    -0.141199
 P    -1.719889    -0.424070    -0.040102
 C     0.358145    -2.934516     0.330700
 O     0.607414    -3.744004     1.109184
 C    -2.219540     2.267495     0.022122
 C    -2.792692     2.732968     1.209786
 H    -2.533055     2.238328     2.147091
 C    -2.480086     2.899918    -1.204322
 C    -1.816547     2.455423    -2.474465
 H    -1.217829     3.274019    -2.904936
 H    -1.149843     1.599878    -2.306174
 H    -2.562160     2.169277    -3.233018
 C    -3.679861     3.803405     1.185569
 H    -4.131540     4.156997     2.115246
 C    -3.379140     3.973752    -1.199191
 H    -3.603287     4.471961    -2.146844
 C    -3.984778     4.420033    -0.027959
 H    -4.684235     5.258302    -0.059739
 H    -3.382795    -1.548531    -1.256110
 H    -3.057621     0.026726    -1.938748
 C    -4.577711     0.032743    -0.360543
 H    -4.801445    -0.560113     0.542004
 H    -4.456353     1.072601    -0.019052
 C    -5.792429    -0.026212    -1.292142
 H    -5.892015    -1.067621    -1.652955
 C    -7.057393     0.329481    -0.519127
 H    -7.208601    -0.343104     0.339732
 H    -7.951660     0.266429    -1.158241
 H    -6.996793     1.359520    -0.129680
 C    -5.630340     0.882435    -2.506539
 H    -6.525732     0.850740    -3.146228
 H    -4.772704     0.592749    -3.132270
 H    -5.477121     1.927862    -2.189959
 H    -2.946916    -0.045822     2.028505
 H    -1.268361    -0.592680     2.258695
 C    -2.693531    -2.202244     1.895243
 H    -3.695461    -2.304662     1.444380
 H    -2.045677    -2.907599     1.346881
 C    -2.762820    -2.642617     3.361191
 H    -3.363476    -1.891184     3.908479
 C    -3.476120    -3.985351     3.470576
 H    -4.491337    -3.940733     3.045805
 H    -3.562889    -4.309840     4.519010
 H    -2.919864    -4.766247     2.925836
 C    -1.381980    -2.710901     4.005719
 H    -1.454570    -3.024575     5.058458
 H    -0.860922    -1.741831     3.988235
 H    -0.742403    -3.437204     3.478663
 C     2.293439     0.598337     2.417297
 C     3.406320    -0.075279     2.928154
 H     3.608315    -1.090461     2.584037
 C     1.951446     1.879806     2.883005
 C     0.737076     2.594418     2.373180
 H     1.010600     3.376535     1.645405
 H     0.051543     1.906389     1.864780
 H     0.202706     3.095428     3.193797
 C     4.225767     0.536619     3.871351
 H     5.096323     0.003950     4.261036
 C     2.789602     2.468779     3.836942
 H     2.536818     3.466316     4.207829
 C     3.921784     1.819952     4.322501
 H     4.556650     2.308983     5.064660
 H     3.447277    -1.812809     0.266710
 H     4.103641    -0.159671     0.290897
 C     3.857428    -1.020110    -1.706206
 H     3.077736    -1.598722    -2.228526
 H     3.899062    -0.037306    -2.210671
 C     5.207966    -1.716908    -1.885726
 H     5.141940    -2.696247    -1.375035
 C     5.470597    -1.977440    -3.364280
 H     4.660896    -2.570352    -3.817048
 H     6.415360    -2.522183    -3.515739
 H     5.540750    -1.028596    -3.922313
 C     6.354394    -0.933538    -1.255854
 H     7.317112    -1.445399    -1.408959
 H     6.221247    -0.800344    -0.171578
 H     6.436070     0.069620    -1.708285
 H     0.843495     1.924980    -0.533095
 H     1.731470     1.307326    -1.912710
 C     2.992694     2.335680    -0.455357
 H     3.164894     2.306408     0.631573
 H     3.911500     1.931267    -0.916396
 C     2.838747     3.799591    -0.878787
 H     1.916006     4.182630    -0.402471
 C     4.010436     4.623398    -0.358452
 H     4.106457     4.535865     0.735189
 H     3.894844     5.690186    -0.605261
 H     4.959121     4.279722    -0.803801
 C     2.680209     3.955247    -2.386859
 H     2.589414     5.015747    -2.668365
 H     1.786313     3.436289    -2.764819
 H     3.556181     3.544315    -2.917109
