 112
scf done:    -4353.111097
 C     0.469835    -3.750004     0.537538
 H     0.736824    -4.343182    -0.344552
 H     1.226351    -3.796409     1.327271
 C    -0.918790    -3.603772     0.885112
 H    -1.666275    -4.093966     0.254748
 H    -1.211918    -3.543157     1.938010
 H     0.257762    -1.499094     1.670515
Ir    -0.165340    -1.749534     0.112034
 O     2.062845     0.590956     0.912648
 C     3.126704    -1.895976     0.144418
 C     2.460539     0.178361    -1.735575
 O    -2.592153     0.143002    -1.063709
 C    -3.202341    -0.495377     1.484145
 C    -1.184008     1.597928     0.839300
 P    -1.779069    -0.085116     0.383621
 P     1.829948    -0.637386    -0.208376
 C    -0.660791    -2.124885    -1.703030
 O    -0.957288    -2.364919    -2.788653
 C     2.912236     1.646265     0.802175
 C     4.064737     1.695792     1.587778
 H     4.283410     0.848905     2.237159
 C     2.607970     2.705275    -0.054191
 H     1.687462     2.667830    -0.636109
 C     4.918778     2.791249     1.508131
 H     5.824762     2.839008     2.114874
 C     3.462668     3.798823    -0.145794
 H     3.233741     4.627834    -0.817111
 C     4.618147     3.834146     0.632416
Cl     5.696166     5.191589     0.512382
 C     3.369411    -2.825389    -0.885030
 O     2.700021    -2.592507    -2.031157
 C     2.711383    -3.537396    -3.061045
 H     2.012377    -3.169950    -3.822944
 H     3.714142    -3.641135    -3.511419
 H     2.370159    -4.525873    -2.707731
 C     3.705863    -2.141412     1.398548
 O     3.387874    -1.301368     2.411585
 C     3.762027    -1.636685     3.716029
 H     3.319732    -0.875655     4.372507
 H     4.858052    -1.624746     3.853618
 H     3.377840    -2.629135     4.008865
 C     4.564247    -3.235095     1.587605
 H     5.026059    -3.414766     2.557366
 C     4.221783    -3.917425    -0.706175
 H     4.407970    -4.619192    -1.518364
 C     4.823519    -4.102399     0.533689
 H     5.494112    -4.950838     0.687913
 C     3.842831     0.381822    -1.941057
 O     4.652232     0.024768    -0.933699
 C     6.027056     0.270007    -1.004175
 H     6.449699    -0.090695    -0.058050
 H     6.497950    -0.279213    -1.837390
 H     6.241489     1.347627    -1.105661
 C     1.573312     0.623004    -2.737230
 O     0.262597     0.534180    -2.476530
 C    -0.668960     0.844766    -3.479205
 H    -1.651240     0.679393    -3.027636
 H    -0.541864     0.188843    -4.356746
 H    -0.585261     1.898280    -3.795886
 C     2.058436     1.169018    -3.935570
 H     1.370463     1.491140    -4.714973
 C     4.328526     0.944550    -3.126241
 H     5.396414     1.097697    -3.273605
 C     3.426838     1.318309    -4.114648
 H     3.800862     1.752847    -5.045028
 C    -3.862603     0.572757    -1.229798
 C    -4.482281     1.510599    -0.397857
 H    -3.947083     1.930099     0.455323
 C    -4.560248     0.044065    -2.319541
 H    -4.059119    -0.698583    -2.943589
 C    -5.789912     1.909774    -0.658466
 H    -6.282523     2.637578    -0.011601
 C    -5.863249     0.450101    -2.587420
 H    -6.411844     0.041049    -3.437503
 C    -6.475325     1.382644    -1.751342
Cl    -8.105300     1.889765    -2.073372
 C    -3.622300     0.212091     2.627377
 O    -3.150105     1.460479     2.782928
 C    -3.248269     2.104012     4.019849
 H    -2.642494     3.016446     3.939299
 H    -4.288972     2.384077     4.260107
 H    -2.847442     1.476149     4.833818
 C    -3.886928    -1.693175     1.173104
 O    -3.594611    -2.235511    -0.016526
 C    -4.228797    -3.409115    -0.434357
 H    -3.803338    -3.654193    -1.415729
 H    -5.318023    -3.262994    -0.538200
 H    -4.037242    -4.247483     0.256788
 C    -4.830801    -2.242104     2.047560
 H    -5.334496    -3.177187     1.807365
 C    -4.550431    -0.341949     3.518757
 H    -4.847549     0.201509     4.414874
 C    -5.130329    -1.569698     3.226315
 H    -5.860400    -1.997238     3.917746
 C    -0.489835     1.673452     2.061065
 O    -0.546798     0.561910     2.811866
 C     0.455944     0.307327     3.759269
 H     0.301523    -0.725598     4.096030
 H     1.451546     0.388259     3.297421
 H     0.375230     0.983726     4.628592
 C    -1.221173     2.751555     0.031902
 O    -1.864167     2.676572    -1.148990
 C    -2.053972     3.827947    -1.916279
 H    -2.669322     3.527998    -2.774356
 H    -1.098504     4.241129    -2.285928
 H    -2.588552     4.613073    -1.353917
 C    -0.601175     3.936461     0.458721
 H    -0.637001     4.830626    -0.161681
 C     0.159442     2.838492     2.474106
 H     0.711604     2.864099     3.412810
 C     0.086016     3.965890     1.666002
 H     0.588234     4.885425     1.974786
