  64
scf done:    -2828.317043
 C     3.797322    -2.225433    -0.645347
 H     4.340137    -2.613961     0.222832
 H     3.407784    -3.013147    -1.297870
 C     4.233471    -0.985173    -1.238548
 H     5.096268    -0.469295    -0.803585
 H     4.160109    -0.860967    -2.322939
 H     1.697883    -1.134016    -1.647406
Ir     2.362169    -0.683808    -0.211689
 O    -0.895046    -1.039144    -0.215716
 C     0.332718    -3.495019     0.277392
 C    -0.039891    -1.476724     2.332996
 O     0.388486     1.771809     0.707025
 C     2.486219     2.852499    -0.633037
 C     0.365288     1.510873    -2.094147
 P     1.403517     1.371764    -0.585937
 P     0.455239    -1.684442     0.579240
 C     3.230047    -0.122747     1.402337
 O     3.766080     0.251205     2.348295
 C    -2.120920    -1.618370    -0.321112
 C    -3.099522    -1.407190     0.654597
 H    -2.867275    -0.789316     1.523645
 C    -2.424805    -2.375021    -1.456065
 H    -1.658641    -2.506231    -2.222434
 C    -4.361470    -1.978201     0.514214
 H    -5.130199    -1.821811     1.272668
 C    -3.683472    -2.948698    -1.599707
 H    -3.926949    -3.545935    -2.479849
 C    -4.646107    -2.754171    -0.608589
Cl    -6.213287    -3.470209    -0.782350
 H     1.343551    -3.853440     0.534419
 C    -0.733773    -4.318013     0.985894
 H    -1.753311    -3.999098     0.730571
 H    -0.629871    -4.265698     2.079751
 H     0.271662    -3.595983    -0.818948
 H    -0.639648    -5.377734     0.702705
 H    -1.033805    -1.928875     2.480553
 C     0.970460    -2.050511     3.315408
 H     1.960735    -1.591219     3.191192
 H     1.090899    -3.138223     3.195901
 H    -0.144438    -0.387048     2.461454
 H     0.647227    -1.866465     4.350868
 C    -0.648055     2.651735     0.664294
 C    -1.920131     2.199029     0.304072
 H    -2.044467     1.148471     0.040853
 C    -0.461448     3.987996     1.025498
 H     0.530404     4.324245     1.332678
 C    -2.994726     3.081281     0.275742
 H    -3.989620     2.736678    -0.011034
 C    -1.534485     4.874799     0.999402
 H    -1.399290     5.921319     1.277314
 C    -2.795784     4.419323     0.617009
Cl    -4.131281     5.523061     0.578237
 H     2.959635     2.891784     0.361697
 C     3.537759     2.761957    -1.728686
 H     3.084485     2.764305    -2.732223
 H     4.119346     1.833288    -1.630081
 H     1.865728     3.757834    -0.736166
 H     4.231477     3.614303    -1.676978
 H    -0.485776     0.836906    -1.905175
 C    -0.071331     2.881785    -2.588310
 H     0.789986     3.517511    -2.842263
 H    -0.683393     3.422127    -1.853646
 H     0.973149     0.993029    -2.853870
 H    -0.674817     2.774590    -3.502827
