 110
scf done:    -2911.473773
 C     1.216527     1.944858    -3.404337
 H     1.549778     2.980701    -3.279278
 H     1.969276     1.305123    -3.875615
 C    -0.178009     1.691330    -3.671229
 H    -0.862335     2.543934    -3.746807
 H    -0.446911     0.866589    -4.338657
 H     0.705054    -0.364171    -2.404754
Ir     0.298537     1.050584    -1.672716
 O     2.142711    -1.164251    -0.110112
 C     3.636697     1.122513    -0.757141
 C     1.882469     0.958355     1.583243
 O    -2.437628     0.106005     0.282301
 C    -2.665343    -0.678908    -2.335649
 C    -0.953451    -2.012696    -0.419637
 P    -1.430450    -0.310080    -0.991622
 P     1.981457     0.495548    -0.208065
 C    -0.146166     2.805729    -1.013099
 O    -0.402136     3.896947    -0.773243
 C     3.143306    -1.997261     0.307286
 C     3.644480    -1.977761     1.606738
 H     3.275000    -1.244659     2.322879
 C     3.584095    -2.945159    -0.630840
 C     3.012529    -2.938813    -2.014754
 H     1.927213    -3.125209    -1.998893
 H     3.140085    -1.956640    -2.497331
 H     3.488028    -3.703559    -2.643727
 C     4.630583    -2.888698     1.978433
 H     5.034863    -2.858892     2.992500
 C     4.560175    -3.857362    -0.225936
 H     4.915131    -4.601134    -0.944813
 C     5.089572    -3.832077     1.063676
 H     5.858201    -4.551973     1.353166
 H     3.664337     0.890273    -1.832145
 H     3.505990     2.215988    -0.690106
 C     4.883291     0.657753    -0.065768
 C     5.302766     1.202527     1.152908
 H     4.748915     2.026801     1.606952
 C     5.654521    -0.361194    -0.637677
 H     5.346050    -0.780478    -1.599362
 C     6.435600     0.704693     1.793993
 H     6.749531     1.133721     2.748722
 C     6.794137    -0.870059    -0.013437
 C     7.610561    -1.950007    -0.659927
 H     7.939012    -2.696393     0.078209
 H     7.037550    -2.473617    -1.437497
 H     8.515825    -1.531660    -1.130712
 C     7.169244    -0.329654     1.223138
 H     8.052841    -0.719262     1.736109
 H     1.223237     0.194620     2.020405
 H     2.879252     0.846961     2.035430
 C     1.313115     2.321486     1.828154
 C     2.099919     3.473021     1.707082
 H     3.156104     3.392239     1.440087
 C    -0.035657     2.460581     2.172777
 H    -0.657869     1.563602     2.249573
 C     1.544361     4.727945     1.937813
 H     2.165163     5.622240     1.844540
 C    -0.607758     3.713651     2.412124
 C    -2.064220     3.841110     2.737707
 H    -2.661239     3.887883     1.812565
 H    -2.430048     2.976999     3.309706
 H    -2.271079     4.754430     3.313907
 C     0.203634     4.846791     2.291728
 H    -0.225579     5.835850     2.472622
 C    -3.267128     1.177587     0.359251
 C    -3.325335     2.186782    -0.603372
 H    -2.650615     2.160925    -1.459657
 C    -4.125485     1.195776     1.476480
 C    -4.054710     0.088549     2.478255
 H    -4.704979     0.290825     3.340311
 H    -4.359299    -0.865337     2.020526
 H    -3.025543    -0.073474     2.833838
 C    -4.245177     3.226903    -0.465412
 H    -4.277722     4.013987    -1.222007
 C    -5.041330     2.242732     1.580596
 H    -5.715381     2.261750     2.441558
 C    -5.110389     3.256657     0.623220
 H    -5.835817     4.065569     0.731986
 H    -3.070659     0.291622    -2.657962
 H    -2.042482    -1.048523    -3.165261
 C    -3.747522    -1.645975    -1.971307
 C    -3.672584    -2.990532    -2.352064
 H    -2.849024    -3.329577    -2.986747
 C    -4.832825    -1.235483    -1.185043
 H    -4.918883    -0.184400    -0.901120
 C    -4.643546    -3.898720    -1.930397
 H    -4.574026    -4.946346    -2.232924
 C    -5.804313    -2.133166    -0.739975
 C    -6.931366    -1.670680     0.137392
 H    -6.847258    -0.598594     0.364139
 H    -7.908952    -1.843800    -0.340039
 H    -6.936511    -2.218985     1.093028
 C    -5.694511    -3.478080    -1.121228
 H    -6.445266    -4.198732    -0.784732
 H    -1.385435    -2.716831    -1.145534
 H     0.138465    -2.037248    -0.521552
 C    -1.362323    -2.393419     0.970903
 C    -0.481638    -2.215900     2.041565
 H     0.522049    -1.832301     1.848547
 C    -2.624774    -2.940592     1.221721
 H    -3.315851    -3.087381     0.388878
 C    -0.870220    -2.561519     3.334869
 H    -0.172680    -2.425945     4.165331
 C    -3.028261    -3.296507     2.510139
 C    -4.403733    -3.847563     2.754035
 H    -5.063264    -3.078241     3.190860
 H    -4.868104    -4.187535     1.817415
 H    -4.383797    -4.692649     3.458689
 C    -2.134699    -3.094332     3.569823
 H    -2.431053    -3.366954     4.586746
