  98
scf done:    -2754.325886
 C     0.003807    -3.523120    -1.326579
 H    -0.316342    -4.287767    -0.611337
 H    -0.632656    -3.468834    -2.214587
 C     1.400515    -3.203099    -1.436832
 H     2.115636    -3.743817    -0.807319
 H     1.810811    -2.911285    -2.408211
 H     0.116642    -1.052306    -1.991051
Ir     0.356445    -1.584829    -0.454186
 O    -2.200238     0.412048    -1.183992
 C    -3.068264    -1.982341    -0.262023
 C    -2.135525     0.042553     1.537604
 O     2.175064     0.786042     1.190054
 C     3.252104     0.271559    -1.264529
 C     0.931094     1.881138    -0.880654
 P     1.670929     0.300840    -0.355179
 P    -1.744793    -0.746300    -0.057622
 C     0.653507    -2.287135     1.302542
 O     0.820398    -2.708987     2.359103
 C    -3.140516     1.378344    -0.950301
 C    -2.775778     2.546815    -0.277968
 H    -1.751962     2.655035     0.081401
 C    -4.447777     1.219199    -1.404341
 H    -4.728508     0.300814    -1.921554
 C    -3.719196     3.543536    -0.064094
 H    -3.420914     4.449352     0.471887
 C    -5.383197     2.230119    -1.183112
 H    -6.407382     2.095356    -1.542128
 C    -5.041214     3.406873    -0.510717
 C    -6.046108     4.498860    -0.281458
 H    -6.057169     4.819937     0.771825
 H    -7.062106     4.173806    -0.546498
 H    -5.813869     5.390171    -0.887492
 C    -3.582295    -2.236480    -1.538360
 H    -3.252990    -1.622778    -2.380339
 C    -3.462597    -2.804262     0.798905
 H    -3.054729    -2.638886     1.799653
 C    -4.491766    -3.269762    -1.738975
 H    -4.883234    -3.452852    -2.743784
 C    -4.370141    -3.838393     0.588328
 H    -4.667638    -4.469819     1.430291
 C    -4.907191    -4.086758    -0.680203
 C    -5.910933    -5.180902    -0.896361
 H    -6.940220    -4.795565    -0.801474
 H    -5.819115    -5.619281    -1.900841
 H    -5.794432    -5.987151    -0.157918
 C    -3.456171     0.248088     1.964534
 H    -4.288090    -0.134564     1.369311
 C    -1.089488     0.559123     2.308257
 H    -0.054147     0.422677     1.987132
 C    -3.715033     0.953032     3.132410
 H    -4.750917     1.111799     3.444804
 C    -1.358434     1.266012     3.477632
 H    -0.526076     1.664894     4.063646
 C    -2.671574     1.475420     3.909951
 C    -2.963035     2.217856     5.180141
 H    -3.222674     1.517760     5.991589
 H    -2.095408     2.803908     5.514070
 H    -3.816390     2.901751     5.058137
 C     3.424368     0.523696     1.683933
 C     4.475817     1.404970     1.423293
 H     4.290438     2.289703     0.812280
 C     3.646584    -0.608480     2.464078
 H     2.819175    -1.285602     2.677685
 C     5.743020     1.138488     1.927379
 H     6.559551     1.832969     1.709970
 C     4.922892    -0.859933     2.965564
 H     5.086631    -1.751682     3.576942
 C     5.994465    -0.001758     2.702225
 C     7.374860    -0.290748     3.217448
 H     7.810372     0.587681     3.718569
 H     8.056746    -0.564693     2.395522
 H     7.370593    -1.122415     3.936011
 C     4.016586    -0.899925    -1.207661
 H     3.609025    -1.774194    -0.694687
 C     3.765545     1.383782    -1.938251
 H     3.182698     2.306257    -1.992506
 C     5.277324    -0.945824    -1.788894
 H     5.867910    -1.863605    -1.720438
 C     5.022039     1.322969    -2.535351
 H     5.409681     2.199478    -3.062133
 C     5.801909     0.163400    -2.465596
 C     7.150313     0.093669    -3.119224
 H     7.097966    -0.466399    -4.067692
 H     7.541942     1.094946    -3.347544
 H     7.879656    -0.424106    -2.478324
 C     1.025068     3.036152    -0.098759
 H     1.548741     2.993252     0.857716
 C     0.249684     1.942350    -2.102503
 H     0.144371     1.039766    -2.707776
 C     0.443249     4.227013    -0.532383
 H     0.515958     5.119208     0.096043
 C    -0.317182     3.135987    -2.529833
 H    -0.856141     3.162191    -3.480630
 C    -0.241375     4.297629    -1.749398
 C    -0.935031     5.554104    -2.181693
 H    -2.015108     5.483069    -1.967329
 H    -0.546499     6.436294    -1.653317
 H    -0.829527     5.723506    -3.263568
