  98
scf done:    -2754.320783
 C    -0.939591     1.445239    -2.838275
 H    -1.388440     0.811518    -3.609451
 H    -1.588625     2.247918    -2.484291
 C     0.474002     1.643763    -2.823559
 H     1.087942     1.174621    -3.598496
 H     0.876468     2.590732    -2.451623
 H    -0.236551     1.709751    -0.358320
Ir    -0.083650     0.315247    -1.194841
 O    -3.124515     1.180996    -0.181365
 C    -3.165975    -1.250185    -1.207414
 C    -2.319954    -0.788937     1.517812
 O     2.190274    -0.542109     1.373820
 C     3.433984    -0.273524    -0.995901
 C     2.402687     1.959525     0.477730
 P     1.934728     0.279862    -0.079181
 P    -2.112183    -0.160181    -0.192958
 C     0.021069    -1.326420    -2.191876
 O     0.051323    -2.313033    -2.780416
 C    -2.723489     2.403934     0.281888
 C    -2.838590     3.505130    -0.564692
 H    -3.251470     3.363638    -1.564996
 C    -2.241679     2.578414     1.579457
 H    -2.188417     1.724572     2.255959
 C    -2.419367     4.759961    -0.132969
 H    -2.500289     5.611783    -0.813836
 C    -1.823600     3.839130     1.994545
 H    -1.435625     3.960476     3.009662
 C    -1.882288     4.948923     1.145330
 C    -1.350124     6.283150     1.579774
 H    -0.262076     6.340985     1.405684
 H    -1.519208     6.457102     2.652888
 H    -1.816827     7.108023     1.022292
 C    -4.096609    -0.670267    -2.077975
 H    -4.227158     0.412554    -2.065991
 C    -2.972235    -2.647562    -1.200943
 C    -1.995558    -3.332724    -0.288623
 H    -2.416064    -3.462351     0.721393
 H    -1.062280    -2.764970    -0.164733
 H    -1.735454    -4.326634    -0.678190
 C    -4.853865    -1.459741    -2.936985
 H    -5.578954    -0.993785    -3.608269
 C    -3.745521    -3.417723    -2.077677
 H    -3.602660    -4.501769    -2.084692
 C    -4.678139    -2.841506    -2.934939
 H    -5.263472    -3.473682    -3.606957
 C    -1.142751    -1.072718     2.213360
 H    -0.192336    -0.905760     1.705189
 C    -3.576654    -0.997773     2.133650
 C    -4.886711    -0.747969     1.446361
 H    -5.065092    -1.494635     0.656567
 H    -4.907134     0.234619     0.957393
 H    -5.716225    -0.807934     2.164046
 C    -1.170818    -1.562809     3.515353
 H    -0.236066    -1.790388     4.030326
 C    -3.579725    -1.479742     3.447689
 H    -4.541764    -1.641107     3.941812
 C    -2.400246    -1.762350     4.134792
 H    -2.447619    -2.142215     5.158475
 C     2.082999    -1.883896     1.543175
 C     2.240402    -2.359466     2.850187
 H     2.459086    -1.641854     3.643842
 C     1.831930    -2.789826     0.511294
 H     1.740546    -2.447389    -0.518029
 C     2.114803    -3.716225     3.118949
 H     2.240055    -4.068488     4.146945
 C     1.700869    -4.147254     0.803189
 H     1.495563    -4.840135    -0.017465
 C     1.828668    -4.639619     2.103618
 C     1.653482    -6.098304     2.412138
 H     2.429556    -6.461566     3.103096
 H     1.699042    -6.710180     1.500082
 H     0.678236    -6.289950     2.890136
 C     3.280220    -0.589218    -2.349977
 H     2.291422    -0.484412    -2.797414
 C     4.710716    -0.383610    -0.392741
 C     4.991236    -0.078452     1.050472
 H     4.679491    -0.913968     1.696087
 H     4.454830     0.813333     1.399838
 H     6.068256     0.080099     1.200014
 C     4.352151    -1.017746    -3.126753
 H     4.201924    -1.258082    -4.181438
 C     5.773946    -0.814706    -1.195692
 H     6.765388    -0.900488    -0.742632
 C     5.608231    -1.132699    -2.540920
 H     6.465772    -1.466701    -3.130192
 C     3.160593     2.721006    -0.421180
 H     3.537097     2.255917    -1.335253
 C     1.904537     2.552632     1.657460
 C     1.069300     1.807092     2.652869
 H     1.654192     1.032413     3.167605
 H     0.232296     1.296825     2.156723
 H     0.655948     2.493992     3.403163
 C     3.439620     4.061189    -0.170984
 H     4.031275     4.637109    -0.886059
 C     2.204374     3.900243     1.888224
 H     1.823563     4.368632     2.800005
 C     2.958663     4.653782     0.992755
 H     3.168092     5.704923     1.205710
