  90
scf done:    -3294.760929
 C     0.614537    -2.082317    -3.034541
 H     1.048762    -1.660046    -3.945187
 H     1.280635    -2.767687    -2.504965
 C    -0.799041    -2.267860    -2.952511
 H    -1.432978    -1.984369    -3.797801
 H    -1.198421    -3.101801    -2.368223
 H     0.048164    -1.708536    -0.543783
Ir    -0.233440    -0.584375    -1.703815
 O     2.944505    -0.110293    -0.607073
 O     1.732096     2.025777    -1.089375
 O     1.242685     0.763827     1.002906
 O    -2.262012     0.695523     0.772759
 O    -3.391343     0.349292    -1.498857
 O    -2.946272    -1.529807     0.043927
 P    -2.160259    -0.232919    -0.592941
 P     1.411983     0.495501    -0.616521
 C    -0.481372     0.724357    -3.110094
 O    -0.617860     1.518863    -3.919840
 C     3.293837    -1.369519    -1.028689
 C     3.957675    -1.509123    -2.244601
 H     4.165979    -0.618447    -2.840076
 C     3.007226    -2.486691    -0.249506
 H     2.488248    -2.365242     0.702730
 C     4.327462    -2.775702    -2.683569
 H     4.841510    -2.879634    -3.643068
 C     3.379278    -3.748926    -0.706567
 H     3.145021    -4.624464    -0.095048
 C     4.041565    -3.920092    -1.927328
 C     4.456674    -5.281142    -2.405417
 H     5.537198    -5.441808    -2.255424
 H     4.255934    -5.408365    -3.479811
 H     3.926766    -6.077217    -1.863730
 C     2.765398     2.773622    -0.567980
 C     3.927948     2.928613    -1.319833
 H     4.003498     2.433750    -2.289142
 C     2.633926     3.387855     0.676745
 H     1.714252     3.246217     1.243669
 C     4.970228     3.710337    -0.829798
 H     5.891717     3.852786    -1.396818
 C     3.677198     4.166845     1.171472
 H     3.604898     4.660038     2.142549
 C     4.831691     4.318948     0.412381
 F     5.828495     5.066096     0.885335
 C     1.740291    -0.050429     1.986930
 C     0.902671    -0.985263     2.594164
 H    -0.134639    -1.068347     2.267013
 C     3.072040     0.078330     2.383837
 H     3.706788     0.812605     1.886275
 C     1.402672    -1.804207     3.605634
 H     0.777587    -2.549389     4.099060
 C     3.573109    -0.738489     3.392419
 H     4.611218    -0.665010     3.720873
 C     2.731610    -1.671061     3.988937
 F     3.211606    -2.456309     4.952719
 C    -1.697616     1.932325     0.931444
 C    -1.346752     2.311895     2.224364
 H    -1.493596     1.603340     3.041179
 C    -1.503333     2.813759    -0.132962
 H    -1.782668     2.526483    -1.147911
 C    -0.813426     3.576539     2.449790
 H    -0.546563     3.866637     3.469702
 C    -0.956465     4.071106     0.110173
 H    -0.799835     4.749076    -0.732922
 C    -0.606828     4.481767     1.400780
 C    -0.004362     5.835687     1.640029
 H     0.053980     6.066856     2.712993
 H    -0.592313     6.629306     1.154241
 H     1.017059     5.892414     1.228223
 C    -4.665292     0.554279    -1.004719
 C    -5.012195     1.799417    -0.485814
 H    -4.266073     2.594484    -0.442593
 C    -5.598499    -0.478520    -1.066191
 H    -5.296378    -1.445383    -1.469757
 C    -6.308504     2.017399    -0.026286
 H    -6.610794     2.982022     0.384781
 C    -6.895023    -0.263522    -0.608923
 H    -7.649354    -1.051351    -0.645066
 C    -7.233404     0.982641    -0.093602
 F    -8.474037     1.189117     0.345817
 C    -2.475723    -2.223325     1.129654
 C    -2.837308    -1.813986     2.413569
 H    -3.474666    -0.936697     2.527169
 C    -1.663386    -3.340843     0.940156
 H    -1.396251    -3.640838    -0.073266
 C    -2.369685    -2.518411     3.519235
 H    -2.627640    -2.220173     4.536817
 C    -1.191932    -4.046237     2.044065
 H    -0.543178    -4.916088     1.929799
 C    -1.547942    -3.620728     3.317267
 F    -1.064163    -4.270951     4.378676
