  80
scf done:    -3113.765689
 C    -0.766890    -3.856177    -0.508629
 H    -1.227972    -4.357583     0.348268
 H    -1.388299    -3.870928    -1.408758
 C     0.661170    -3.852332    -0.637201
 H     1.271725    -4.349603     0.123376
 H     1.110803    -3.863784    -1.634101
 H    -0.160856    -1.660162    -1.683202
Ir    -0.012288    -1.880040    -0.065335
 O    -1.998920     0.471233    -1.316060
 C    -3.443355    -1.480790    -0.124627
 C    -2.172464     0.581776     1.414775
 O     2.007734     0.409939     1.222347
 C     3.414122    -1.474519    -0.119184
 C     2.103210     0.655259    -1.515775
 P     1.845274    -0.544373    -0.173452
 P    -1.878975    -0.556351     0.022937
 C     0.171366    -2.229971     1.819910
 O     0.290044    -2.439356     2.941255
 C    -2.705107     1.643111    -1.307230
 C    -4.049496     1.671798    -1.681129
 H    -4.548047     0.745164    -1.967712
 C    -2.055689     2.824028    -0.939903
 H    -1.003172     2.781457    -0.655719
 C    -4.747407     2.877558    -1.673839
 H    -5.799262     2.927046    -1.960975
 C    -2.747728     4.030208    -0.930229
 H    -2.262591     4.964151    -0.641617
 C    -4.089826     4.040926    -1.293439
 F    -4.758508     5.192830    -1.280470
 C    -4.096141    -1.985057     1.006495
 H    -3.733789    -1.733317     2.006471
 C    -3.905742    -1.842645    -1.396248
 H    -3.380044    -1.478383    -2.282142
 C    -5.208677    -2.811221     0.874834
 H    -5.733154    -3.208255     1.745741
 C    -5.018965    -2.664454    -1.540504
 H    -5.395707    -2.952610    -2.523575
 C    -5.658557    -3.136311    -0.399457
 F    -6.723695    -3.921794    -0.530859
 C    -3.434093     1.134471     1.686494
 H    -4.307783     0.814948     1.115228
 C    -1.064826     1.012367     2.155922
 H    -0.075559     0.597979     1.944142
 C    -3.586597     2.099980     2.673641
 H    -4.558026     2.544937     2.895543
 C    -1.205182     1.980823     3.146041
 H    -0.350614     2.328134     3.729373
 C    -2.465650     2.512847     3.388384
 F    -2.608287     3.440147     4.328269
 C     2.749241     1.557193     1.289065
 C     2.139360     2.777639     0.988422
 H     1.089668     2.784873     0.690575
 C     4.090055     1.523233     1.676285
 H     4.557948     0.566865     1.911888
 C     2.866379     3.961062     1.058988
 H     2.411965     4.924859     0.823394
 C     4.823211     2.705670     1.747929
 H     5.872857     2.706018     2.047190
 C     4.204214     3.909445     1.433918
 F     4.906636     5.039372     1.497451
 C     4.059933    -1.881292    -1.292467
 H     3.690207    -1.546625    -2.264745
 C     3.887478    -1.939769     1.114901
 H     3.370695    -1.652722     2.034139
 C     5.173965    -2.714824    -1.237722
 H     5.691892    -3.037945    -2.142454
 C     5.001961    -2.768770     1.182715
 H     5.386540    -3.135816     2.135992
 C     5.633402    -3.143908     0.001362
 F     6.699849    -3.936311     0.059988
 C     3.349781     1.263573    -1.736308
 H     4.221744     0.956944    -1.155483
 C     0.999874     1.064634    -2.274025
 H     0.026816     0.596405    -2.108944
 C     3.490247     2.266734    -2.687071
 H     4.449515     2.754268    -2.868482
 C     1.128678     2.070816    -3.227480
 H     0.277016     2.403326    -3.823542
 C     2.372694     2.659786    -3.417758
 F     2.502740     3.622689    -4.323356
