  80
scf done:    -3437.551994
 C     0.198674    -3.544762    -1.402791
 H     0.050891    -4.332503    -0.657080
 H    -0.533224    -3.574493    -2.215082
 C     1.525709    -3.062729    -1.664220
 H     2.364241    -3.506233    -1.116554
 H     1.790150    -2.733226    -2.673350
 H    -0.058851    -1.086096    -2.069526
Ir     0.409221    -1.567278    -0.569164
 O    -2.433878     0.098944    -1.008117
 C    -2.896591    -2.381612    -0.011441
 C    -2.036392    -0.231439     1.686725
 O     2.093113     1.023833     0.869695
 C     2.966497     0.605621    -1.681740
 C     0.526810     1.941331    -1.067129
 P     1.490262     0.459053    -0.614770
 P    -1.721174    -0.989231     0.056682
 C     0.980322    -2.212726     1.142421
 O     1.312617    -2.599772     2.172376
 C    -3.452038     0.941042    -0.659412
 C    -4.778445     0.593596    -0.917160
 H    -5.002617    -0.367910    -1.380416
 C    -3.152655     2.167218    -0.062615
 H    -2.111083     2.423593     0.134528
 C    -5.806503     1.467792    -0.571660
 H    -6.847823     1.206771    -0.766786
 C    -4.175047     3.041715     0.284571
 H    -3.949426     3.999653     0.755311
 C    -5.499790     2.685700     0.032112
Cl    -6.778629     3.771513     0.471799
 C    -3.067204    -3.232375     1.086999
 C    -3.508322    -2.701103    -1.229445
 C    -4.483625    -4.675805    -0.236357
 C    -4.303289    -3.839536    -1.337809
 C    -3.859988    -4.372283     0.973366
 H    -2.577880    -3.003490     2.037386
 H    -3.992105    -5.027624     1.837601
 H    -5.105950    -5.569558    -0.322726
 H    -4.780749    -4.078705    -2.291164
 H    -3.348374    -2.054134    -2.095413
 C    -0.982675     0.426211     2.331770
 C    -3.319215    -0.197476     2.253843
 C    -2.486047     1.144770     4.079184
 C    -3.540835     0.487877     3.443970
 C    -1.208404     1.111516     3.524207
 H     0.018670     0.412854     1.895104
 H    -0.378414     1.621084     4.018961
 H    -2.663012     1.684163     5.012985
 H    -4.544303     0.515511     3.874695
 H    -4.150587    -0.700558     1.755598
 C     3.404216     0.916594     1.236882
 C     4.316192     1.904462     0.859283
 H     3.972915     2.746925     0.257408
 C     3.827899    -0.167132     2.006479
 H     3.107832    -0.927786     2.308881
 C     5.651458     1.802981     1.232905
 H     6.372534     2.565545     0.934954
 C     5.163470    -0.270795     2.386362
 H     5.505245    -1.114928     2.987271
 C     6.070659     0.710630     1.991631
Cl     7.736648     0.575483     2.451439
 C     3.860699    -0.471460    -1.696391
 C     3.267206     1.762458    -2.410099
 C     5.351164     0.773405    -3.128385
 C     4.453647     1.840526    -3.136508
 C     5.054327    -0.382379    -2.406467
 H     3.606902    -1.378348    -1.142579
 H     5.753478    -1.221619    -2.401295
 H     6.284400     0.840533    -3.692847
 H     4.680293     2.742908    -3.709419
 H     2.572935     2.605767    -2.407814
 C    -0.269800     1.903674    -2.218284
 C     0.586096     3.115012    -0.307257
 C    -0.908458     4.206901    -1.862259
 C    -0.133047     4.242707    -0.704906
 C    -0.976267     3.034670    -2.616154
 H    -0.346017     0.977578    -2.791638
 H    -1.597186     2.995867    -3.513853
 H    -1.473454     5.089346    -2.171488
 H    -0.084967     5.154338    -0.104335
 H     1.195587     3.136102     0.597615
