  86
scf done:    -2445.897125
 C    -0.553533    -3.382665    -1.453503
 H    -0.871888    -4.201739    -0.801181
 H    -1.302967    -3.107721    -2.200539
 C     0.841060    -3.239537    -1.768120
 H     1.552618    -3.958644    -1.348674
 H     1.133424    -2.871447    -2.756029
 H    -0.196532    -0.888546    -1.786488
Ir     0.226219    -1.665831    -0.415145
 O    -1.692184     0.966468    -0.296955
 O    -3.040242    -1.170164    -0.020011
 O    -1.841872    -0.282548     1.947570
 O     1.560368     1.133785     0.797244
 O     3.310731    -0.593899     0.406672
 O     2.460352     0.643746    -1.546475
 P     1.891773    -0.117203    -0.225279
 P    -1.595236    -0.557514     0.359407
 C     0.692602    -2.692737     1.146942
 O     0.965187    -3.323621     2.066004
 C    -2.863105     1.662457    -0.458843
 C    -3.424573     2.359645     0.608122
 H    -2.935507     2.315801     1.581837
 C    -3.442968     1.676881    -1.736620
 C    -2.821897     0.885236    -2.844508
 H    -1.768080     1.166950    -2.993271
 H    -2.824126    -0.188542    -2.598884
 H    -3.362812     1.031017    -3.789132
 C    -4.594583     3.091521     0.412557
 H    -5.038832     3.637923     1.247684
 C    -4.609635     2.427502    -1.907397
 H    -5.077608     2.454622    -2.895247
 C    -5.187100     3.126996    -0.847764
 H    -6.101637     3.701992    -1.009242
 C    -4.229806    -1.164512     0.795798
 H    -4.179720    -0.304297     1.480333
 C    -4.268767    -2.446708     1.600930
 H    -3.391905    -2.512776     2.259942
 H    -4.271610    -3.319455     0.930234
 H    -5.174276    -2.482101     2.225313
 C    -5.406014    -0.998801    -0.139678
 H    -5.336925    -0.046469    -0.683407
 H    -5.434064    -1.821903    -0.869947
 H    -6.346921    -1.006236     0.430382
 C    -0.771941    -0.084502     2.885574
 H     0.176914    -0.333914     2.381988
 C    -0.999647    -1.031245     4.043526
 H    -0.994781    -2.075617     3.700631
 H    -1.968173    -0.824846     4.524750
 H    -0.205420    -0.914537     4.795581
 C    -0.731518     1.373446     3.288920
 H    -0.566949     2.007340     2.408337
 H    -1.673526     1.669151     3.777068
 H     0.095436     1.552579     3.991580
 C     2.302242     2.285669     0.955133
 C     3.621437     2.222742     1.407378
 H     4.061109     1.244254     1.595308
 C     1.675418     3.514668     0.697838
 C     0.253188     3.598170     0.230223
 H     0.155307     4.302469    -0.609741
 H    -0.135171     2.621656    -0.079802
 H    -0.402880     3.971248     1.033838
 C     4.344137     3.395550     1.597888
 H     5.377570     3.342119     1.948302
 C     2.429604     4.677223     0.902164
 H     1.959119     5.644216     0.702151
 C     3.748092     4.629798     1.343338
 H     4.309630     5.555304     1.489441
 C     4.007688    -1.724806    -0.141648
 H     3.278134    -2.324449    -0.716618
 C     4.517577    -2.546195     1.022320
 H     3.686198    -2.879371     1.659122
 H     5.208956    -1.950070     1.637982
 H     5.055968    -3.434118     0.659019
 C     5.102892    -1.230842    -1.064903
 H     4.676205    -0.612128    -1.865710
 H     5.827991    -0.619374    -0.505877
 H     5.638103    -2.079975    -1.516029
 C     1.598246     1.221170    -2.540585
 H     0.572326     1.265637    -2.132838
 C     1.607966     0.336468    -3.769240
 H     1.242261    -0.669041    -3.520120
 H     2.630351     0.252903    -4.169075
 H     0.961123     0.758464    -4.553253
 C     2.100074     2.623604    -2.813167
 H     2.132422     3.213809    -1.887674
 H     3.118116     2.588514    -3.230118
 H     1.444569     3.131797    -3.536165
