 104
scf done:    -3452.054681
 C     0.508917    -2.226004    -2.968643
 H     1.280231    -1.951326    -3.694537
 H     0.644112    -3.227979    -2.550151
 C    -0.820013    -1.723728    -3.162248
 H    -1.012867    -1.072157    -4.020900
 H    -1.674764    -2.350285    -2.893451
 H    -0.470495    -2.013416    -0.618126
Ir     0.083847    -0.725403    -1.465693
 O     1.542025    -1.914703     1.345788
 C     3.177186    -2.098944    -0.651451
 C     2.680896     0.523356     0.769266
 O    -1.565821     1.387252     0.824368
 C    -2.576442     1.525677    -1.728144
 C    -2.995853    -0.692254     0.291181
 P    -1.729280     0.370775    -0.534655
 P     1.872223    -0.961720    -0.000889
 C     0.746441     0.748212    -2.489928
 O     1.132699     1.640626    -3.107821
 C     0.395504    -1.948233     2.062218
 C    -0.239386    -3.182612     2.224311
 H     0.171849    -4.052707     1.710350
 C    -0.122672    -0.815189     2.691641
 H     0.356700     0.153370     2.547881
 C    -1.363202    -3.293680     3.034657
 H    -1.858148    -4.256187     3.173101
 C    -1.249873    -0.920347     3.501976
 H    -1.662453    -0.039947     3.996955
 C    -1.860202    -2.159796     3.677103
Cl    -3.259529    -2.297436     4.694386
 H     2.535179    -2.978845    -0.850492
 C     4.271045    -2.540095     0.320924
 H     3.832008    -2.826888     1.287467
 H     4.956279    -1.696185     0.511883
 C     5.065323    -3.700196    -0.275428
 H     5.870059    -4.000363     0.415342
 H     4.398491    -4.575803    -0.373956
 C     5.641944    -3.348796    -1.643009
 H     6.165033    -4.217925    -2.073814
 H     6.405000    -2.558659    -1.519351
 C     4.562268    -2.848097    -2.597518
 H     3.860345    -3.670184    -2.826456
 H     5.009703    -2.544955    -3.557906
 C     3.783786    -1.683647    -1.993093
 H     4.471627    -0.835785    -1.848378
 H     2.996025    -1.339207    -2.676962
 H     1.830720     1.215553     0.909001
 C     3.661820     1.198320    -0.195207
 H     3.187467     1.381420    -1.172794
 H     4.510193     0.517853    -0.375571
 C     4.203713     2.502658     0.380928
 H     4.943634     2.934037    -0.312519
 H     3.385768     3.234696     0.457561
 C     4.818809     2.301114     1.760269
 H     5.138986     3.270096     2.175164
 H     5.729228     1.680366     1.669814
 C     3.840290     1.616792     2.707838
 H     2.981077     2.286767     2.886937
 H     4.311621     1.441945     3.688591
 C     3.333144     0.296480     2.134987
 H     4.177053    -0.404492     2.035237
 H     2.625067    -0.177868     2.829653
 C    -0.652213     2.355801     1.009571
 C    -0.386049     2.729598     2.334139
 H    -0.924742     2.223666     3.136991
 C     0.007289     3.020691    -0.030789
 H    -0.192380     2.762521    -1.069084
 C     0.534818     3.730066     2.618174
 H     0.746019     4.014097     3.650356
 C     0.926486     4.027773     0.251325
 H     1.439639     4.541816    -0.562890
 C     1.196992     4.372578     1.572515
Cl     2.391201     5.580633     1.923715
 H    -1.723942     1.929985    -2.305271
 C    -3.333494     2.720039    -1.143789
 H    -2.702875     3.274574    -0.434035
 H    -4.207400     2.369785    -0.573622
 C    -3.798859     3.646460    -2.264517
 H    -4.360521     4.494333    -1.840206
 H    -2.913392     4.080585    -2.763706
 C    -4.646069     2.907797    -3.294745
 H    -4.937876     3.587510    -4.111580
 H    -5.585745     2.575277    -2.817162
 C    -3.913181     1.691750    -3.850037
 H    -3.035074     2.025742    -4.431757
 H    -4.558341     1.138831    -4.551822
 C    -3.444756     0.763927    -2.733368
 H    -4.326730     0.350961    -2.215222
 H    -2.888026    -0.089940    -3.145896
 H    -2.414564    -1.024108     1.170419
 C    -3.384598    -1.951837    -0.483465
 H    -2.476118    -2.481682    -0.803230
 H    -3.938113    -1.681742    -1.398523
 C    -4.252549    -2.860504     0.382330
 H    -4.540924    -3.756861    -0.190405
 H    -3.652056    -3.213943     1.239000
 C    -5.488592    -2.137469     0.904037
 H    -6.078028    -2.804126     1.554126
 H    -6.142327    -1.874903     0.051813
 C    -5.105654    -0.868477     1.655522
 H    -4.560560    -1.141722     2.574518
 H    -6.008115    -0.324860     1.979854
 C    -4.233334     0.047721     0.802676
 H    -4.828102     0.401748    -0.056553
 H    -3.932545     0.936579     1.376139
