 100
scf done:    -2579.148938
 C    -0.467917    -3.609128    -1.868304
 H    -0.852327    -4.458068    -1.293086
 H    -1.123546    -3.317441    -2.694810
 C     0.959323    -3.470114    -2.030904
 H     1.616048    -4.219004    -1.575038
 H     1.350346    -3.072755    -2.972211
 H    -0.009374    -1.089780    -2.077790
Ir     0.225848    -1.947685    -0.694240
 O    -1.314701     0.927544    -0.376127
 C    -3.175467    -1.084042    -0.883398
 C    -2.006568    -0.612078     1.747839
 O     1.349035     0.331082     1.374063
 C     3.498724    -0.823542     0.173987
 C     1.886326     1.095318    -1.269738
 P     1.760159    -0.333328    -0.130038
 P    -1.592941    -0.709460    -0.031938
 C     0.607463    -3.007896     0.854866
 O     0.894895    -3.641930     1.770818
 C    -2.270171     1.879138    -0.561163
 C    -2.758526     2.621269     0.518623
 H    -2.380835     2.419505     1.522436
 C    -2.720703     2.154396    -1.854975
 H    -2.307321     1.584550    -2.688981
 C    -3.722605     3.604855     0.311554
 H    -4.122807     4.192981     1.139354
 C    -3.685290     3.134633    -2.067009
 H    -4.057244     3.361252    -3.067852
 C    -4.181619     3.843434    -0.978467
 F    -5.107472     4.780046    -1.178082
 H    -3.193689    -2.187377    -0.906814
 H    -3.007564    -0.782244    -1.929990
 C    -4.483306    -0.537281    -0.325098
 H    -4.618164    -0.907913     0.704421
 H    -4.447557     0.561357    -0.249045
 C    -5.720277    -0.924844    -1.141907
 H    -5.725580    -2.027103    -1.239356
 C    -6.985891    -0.510567    -0.399914
 H    -7.036667    -0.969036     0.600102
 H    -7.891275    -0.805674    -0.952319
 H    -7.018475     0.583853    -0.267375
 C    -5.697775    -0.326209    -2.544312
 H    -6.600444    -0.607540    -3.108078
 H    -4.828934    -0.663909    -3.129127
 H    -5.661194     0.774858    -2.495066
 H    -2.803860     0.131616     1.908105
 H    -1.080765    -0.217402     2.195801
 C    -2.387774    -1.955380     2.356266
 H    -3.407219    -2.226714     2.032953
 H    -1.728655    -2.747955     1.962573
 C    -2.325640    -1.987209     3.887080
 H    -2.919284    -1.132483     4.263834
 C    -2.960538    -3.269542     4.412307
 H    -4.008018    -3.366461     4.086058
 H    -2.945435    -3.303788     5.512583
 H    -2.412525    -4.153019     4.044762
 C    -0.897515    -1.841322     4.403078
 H    -0.875433    -1.834175     5.503684
 H    -0.418430    -0.912631     4.058003
 H    -0.272971    -2.680557     4.056787
 C     1.739338     1.556786     1.822664
 C     0.978043     2.683827     1.500395
 H     0.086853     2.553208     0.886077
 C     2.873920     1.687210     2.627194
 H     3.441658     0.794357     2.894748
 C     1.372441     3.942915     1.942206
 H     0.800285     4.838313     1.692365
 C     3.271411     2.945247     3.074026
 H     4.157292     3.074804     3.698386
 C     2.521673     4.059805     2.716263
 F     2.907192     5.265750     3.133550
 H     3.463334    -1.542009     1.010483
 H     4.068110     0.055711     0.514690
 C     4.122500    -1.468932    -1.056512
 H     3.442044    -2.259588    -1.414566
 H     4.186057    -0.730158    -1.876731
 C     5.513442    -2.063923    -0.826765
 H     5.424889    -2.796207    -0.002047
 C     5.974644    -2.813628    -2.071058
 H     5.255939    -3.597054    -2.357081
 H     6.953319    -3.292582    -1.913016
 H     6.075394    -2.125814    -2.927384
 C     6.535291    -1.010414    -0.413597
 H     7.530914    -1.457591    -0.268928
 H     6.260299    -0.509950     0.527186
 H     6.630084    -0.232787    -1.190685
 H     0.905669     1.592564    -1.188866
 H     1.883282     0.623320    -2.264917
 C     3.044474     2.075267    -1.114312
 H     3.232513     2.288882    -0.052048
 H     3.973787     1.618571    -1.499271
 C     2.812936     3.410583    -1.826020
 H     1.869290     3.827391    -1.425463
 C     3.931511     4.389169    -1.490566
 H     4.010851     4.546407    -0.403334
 H     3.763132     5.369714    -1.962189
 H     4.904773     4.011723    -1.846758
 C     2.652749     3.245070    -3.332666
 H     2.483551     4.216138    -3.823100
 H     1.803446     2.593883    -3.588976
 H     3.560780     2.802384    -3.776217
