  80
scf done:    -3834.323857
 C     0.161137    -3.559702    -1.450975
 H    -0.065143    -4.357748    -0.736596
 H    -0.523971    -3.533890    -2.303248
 C     1.522823    -3.139666    -1.627848
 H     2.306590    -3.639841    -1.048758
 H     1.857075    -2.801924    -2.613307
 H     0.063882    -1.075449    -2.065251
Ir     0.422415    -1.616185    -0.554855
 O    -2.296197     0.204957    -1.110131
 C    -2.956418    -2.260353    -0.200291
 C    -2.072822    -0.208360     1.595121
 O     2.138922     0.869447     1.036740
 C     3.125873     0.464936    -1.474216
 C     0.718996     1.890698    -0.952287
 P     1.593855     0.359293    -0.489870
 P    -1.708368    -0.943210    -0.031538
 C     0.863215    -2.335275     1.165872
 O     1.114847    -2.767080     2.200623
 C    -3.298542     1.084269    -0.809197
 C    -4.614834     0.813224    -1.183258
 H    -4.847792    -0.119356    -1.698344
 C    -2.990384     2.274303    -0.146875
 H    -1.957431     2.468486     0.144415
 C    -5.623432     1.728838    -0.891590
 H    -6.656659     1.528186    -1.179179
 C    -3.992781     3.191235     0.144930
 H    -3.759788     4.123328     0.661716
 C    -5.308437     2.911875    -0.225513
Cl    -6.563164     4.048168     0.143868
 C    -3.263868    -3.111550     0.867877
 H    -2.838357    -2.925865     1.857313
 C    -3.489606    -2.534725    -1.465965
 H    -3.226033    -1.893233    -2.310239
 C    -4.110065    -4.201578     0.685633
 H    -4.364893    -4.872208     1.508122
 C    -4.340475    -3.618080    -1.659287
 H    -4.768999    -3.843860    -2.637416
 C    -4.641751    -4.437309    -0.576817
 F    -5.454347    -5.474604    -0.755155
 C    -3.383211    -0.095954     2.086709
 H    -4.217085    -0.524568     1.526902
 C    -1.021158     0.362392     2.322987
 H     0.003060     0.294659     1.948647
 C    -3.639339     0.570583     3.278128
 H    -4.651973     0.673385     3.671531
 C    -1.265098     1.033266     3.517492
 H    -0.455687     1.481429     4.096159
 C    -2.573040     1.129075     3.976959
 F    -2.814256     1.770172     5.114302
 C     3.421194     0.675491     1.469505
 C     4.403014     1.624912     1.178742
 H     4.137359     2.508066     0.596069
 C     3.745016    -0.457398     2.216046
 H     2.971236    -1.187674     2.452947
 C     5.709264     1.436716     1.616184
 H     6.484399     2.169678     1.387661
 C     5.051205    -0.648474     2.659157
 H     5.314895    -1.531436     3.243348
 C     6.029274     0.295238     2.350993
Cl     7.657646     0.051885     2.889802
 C     3.529762     1.632572    -2.133108
 H     2.884231     2.513649    -2.130668
 C     3.964428    -0.657020    -1.492328
 H     3.636207    -1.572142    -0.994104
 C     4.753041     1.683989    -2.793924
 H     5.083930     2.580685    -3.320862
 C     5.197025    -0.612439    -2.132660
 H     5.868344    -1.472571    -2.147784
 C     5.573785     0.561459    -2.776108
 F     6.746526     0.610406    -3.398051
 C    -0.019690     1.918118    -2.142803
 H    -0.104749     1.012908    -2.747150
 C     0.785075     3.043331    -0.161167
 H     1.348517     3.020448     0.772932
 C    -0.663406     3.080565    -2.549608
 H    -1.248590     3.118020    -3.469737
 C     0.132694     4.210911    -0.554047
 H     0.167436     5.117793     0.052379
 C    -0.578979     4.214027    -1.747288
 F    -1.205915     5.323109    -2.124853
