  76
scf done:    -2264.889856
 C     0.631228    -3.988265    -0.943125
 H     0.545347    -4.726655    -0.138894
 H    -0.112341    -4.124938    -1.734753
 C     1.940539    -3.497862    -1.298387
 H     2.810951    -3.879480    -0.753889
 H     2.154762    -3.271546    -2.347052
 H     0.289527    -1.588054    -1.806632
Ir     0.828808    -1.948022    -0.294057
 O    -1.457989     0.408445    -0.321724
 C    -2.665915    -2.090862    -0.477810
 C    -1.713609    -0.961670     2.022060
 O     1.401265     0.984825     1.048412
 C     3.679164     0.189162    -0.197393
 C     1.444345     1.196107    -1.748848
 P     1.851841     0.112031    -0.326898
 P    -1.256461    -1.170949     0.260026
 C     1.547707    -2.401923     1.423144
 O     2.014340    -2.657113     2.442446
 C    -2.645337     1.041247    -0.529313
 C    -3.248469     1.780265     0.492869
 H    -2.769805     1.829194     1.472347
 C    -3.228698     1.005343    -1.799109
 H    -2.727922     0.449143    -2.593573
 C    -4.448540     2.447314     0.258484
 H    -4.939723     3.027265     1.041905
 C    -4.428712     1.668053    -2.037638
 H    -4.905434     1.648865    -3.019333
 C    -5.029111     2.375954    -1.002135
 F    -6.178711     3.009831    -1.227266
 H    -2.600658    -1.891964    -1.561358
 H    -2.367388    -3.147742    -0.369374
 C    -4.083157    -1.877299     0.044309
 H    -4.350437    -0.810318     0.013462
 H    -4.132238    -2.172051     1.105471
 C    -5.105831    -2.675105    -0.750440
 H    -5.117201    -2.361987    -1.806646
 H    -4.880358    -3.753301    -0.727879
 H    -6.121699    -2.535848    -0.350957
 H    -0.964662    -0.257861     2.423063
 H    -2.700509    -0.474790     2.090731
 C    -1.701558    -2.266956     2.809552
 H    -0.732072    -2.769350     2.668211
 H    -2.458768    -2.957153     2.399770
 C    -1.955664    -2.052450     4.293481
 H    -1.184734    -1.401681     4.735290
 H    -2.933614    -1.576548     4.469927
 H    -1.942901    -3.005496     4.843233
 C     1.448590     2.340809     1.170086
 C     0.345879     3.105636     0.779185
 H    -0.524945     2.592896     0.370610
 C     2.570299     2.965279     1.720790
 H     3.412670     2.353980     2.048966
 C     0.375754     4.491091     0.904594
 H    -0.471453     5.107944     0.599208
 C     2.604481     4.351905     1.850111
 H     3.470052     4.863407     2.275063
 C     1.509455     5.099066     1.432464
 F     1.542650     6.426492     1.551304
 H     4.004263     1.242131    -0.147685
 H     3.921628    -0.275110     0.773651
 C     4.377648    -0.553918    -1.329962
 H     4.126510    -0.080711    -2.295187
 H     3.969288    -1.576350    -1.382335
 C     5.888146    -0.595294    -1.161093
 H     6.319326     0.418351    -1.131816
 H     6.168169    -1.100882    -0.223226
 H     6.368641    -1.138791    -1.988615
 H     1.468754     0.508267    -2.610487
 H     0.377757     1.439120    -1.611169
 C     2.283808     2.437843    -2.028098
 H     3.313130     2.136985    -2.285023
 H     2.365719     3.062820    -1.126163
 C     1.698218     3.267881    -3.160347
 H     1.614307     2.679927    -4.088457
 H     0.688571     3.625788    -2.902873
 H     2.320202     4.149692    -3.376061
