 100
scf done:    -2579.145367
 C    -1.031144    -2.754649    -2.405142
 H    -1.637125    -3.565059    -1.986863
 H    -1.523891    -2.213664    -3.218378
 C     0.400043    -2.898914    -2.427978
 H     0.846654    -3.815036    -2.027415
 H     0.960804    -2.474863    -3.266835
 H    -0.060417    -0.374723    -2.193075
Ir    -0.151821    -1.433586    -0.943052
 O    -2.582580     0.665914    -1.616911
 C    -3.364154    -1.064222     0.421828
 C    -1.672418     1.230448     0.903176
 O     1.447374     1.166559     0.395620
 C     2.813372    -1.143861     0.954949
 C     2.912452     0.067078    -1.677275
 P     1.752417    -0.344734    -0.312120
 P    -1.940666    -0.136026    -0.287668
 C    -0.228515    -2.673982     0.516022
 O    -0.261554    -3.387679     1.418746
 C    -3.833519     1.201165    -1.666342
 C    -4.063433     2.515825    -1.251908
 H    -3.224747     3.114442    -0.893194
 C    -4.889189     0.438004    -2.172923
 H    -4.685879    -0.574548    -2.525923
 C    -5.348949     3.049449    -1.297584
 H    -5.553348     4.071703    -0.974196
 C    -6.176371     0.964975    -2.219087
 H    -7.016871     0.384346    -2.603537
 C    -6.393028     2.262811    -1.769701
 F    -7.625691     2.768699    -1.806928
 H    -3.783254    -1.634387    -0.424750
 H    -2.900425    -1.824133     1.073373
 C    -4.453398    -0.310887     1.177122
 H    -4.035344     0.105320     2.109446
 H    -4.807440     0.552267     0.593055
 C    -5.647297    -1.193839     1.512061
 H    -5.312071    -2.063653     2.106144
 H    -6.059393    -1.611071     0.575094
 C    -6.749051    -0.456227     2.259648
 H    -6.334109    -0.034430     3.192383
 H    -7.070419     0.411610     1.656715
 C    -7.950413    -1.329591     2.582341
 H    -8.729068    -0.767650     3.119934
 H    -7.664041    -2.187263     3.212198
 H    -8.406869    -1.734712     1.664839
 H    -0.958932     1.904060     0.403196
 H    -2.611374     1.781642     1.071863
 C    -1.070510     0.731993     2.210419
 H    -1.817310     0.152805     2.782048
 H    -0.253370     0.031553     1.971487
 C    -0.515141     1.853652     3.075075
 H    -1.330408     2.535922     3.377236
 H     0.176835     2.459221     2.464752
 C     0.218596     1.355185     4.311378
 H    -0.473276     0.765328     4.938341
 H     1.005293     0.645843     3.995420
 C     0.838045     2.472766     5.134597
 H     1.366091     2.084965     6.019034
 H     0.070836     3.179593     5.489335
 H     1.562168     3.050124     4.536905
 C     2.359265     2.154311     0.606964
 C     2.508686     3.168692    -0.343094
 H     1.897095     3.140097    -1.246664
 C     3.105426     2.195305     1.788492
 H     2.955138     1.420174     2.541354
 C     3.428222     4.192884    -0.137352
 H     3.565958     4.990727    -0.869362
 C     4.025221     3.219127     2.001133
 H     4.620010     3.268902     2.914978
 C     4.183344     4.201022     1.030138
 F     5.066619     5.178568     1.228742
 H     3.665670    -0.491038     1.203333
 H     2.183709    -1.219760     1.858142
 C     3.290703    -2.527277     0.529269
 H     2.437859    -3.101222     0.129753
 H     4.002478    -2.434175    -0.309526
 C     3.941896    -3.306210     1.663002
 H     3.216734    -3.407695     2.490718
 H     4.789496    -2.726833     2.072821
 C     4.425344    -4.687631     1.245096
 H     3.572953    -5.255915     0.833092
 H     5.144365    -4.583371     0.413130
 C     5.064280    -5.471964     2.379511
 H     5.401735    -6.465339     2.047309
 H     4.355000    -5.622180     3.209274
 H     5.940228    -4.942679     2.788274
 H     2.866619    -0.808629    -2.345594
 H     2.413362     0.876582    -2.236590
 C     4.357300     0.425378    -1.349214
 H     4.401805     1.179402    -0.548361
 H     4.879276    -0.463620    -0.956399
 C     5.113823     0.957050    -2.558519
 H     4.586611     1.846610    -2.949167
 H     5.084834     0.210083    -3.372645
 C     6.558404     1.324734    -2.250947
 H     6.571793     2.067630    -1.433641
 H     7.081987     0.436271    -1.855286
 C     7.312185     1.870632    -3.452613
 H     8.351215     2.128797    -3.198030
 H     6.830647     2.780414    -3.845957
 H     7.343324     1.135622    -4.273009
