  92
scf done:    -3270.903596
 C     0.944342    -0.297683    -3.931750
 H     1.518956     0.514838    -4.388625
 H     1.429524    -1.274891    -4.025525
 C    -0.495884    -0.231997    -3.963891
 H    -0.971980     0.626718    -4.449511
 H    -1.064570    -1.160889    -4.072731
 H     0.106747    -1.522423    -1.852700
Ir     0.195609     0.108758    -1.955247
 O     1.378163    -0.472862     1.092457
 C     3.043772    -1.602620    -0.820714
 C     3.114543     1.229201    -0.229508
 O    -1.551495     1.640290     0.317192
 C    -3.260135     0.262251    -1.414095
 C    -1.824836    -0.983233     0.871643
 P    -1.616124     0.189244    -0.541282
 P     1.924308    -0.145994    -0.487334
 C     0.201862     2.024159    -2.207131
 O     0.123628     3.150114    -2.403179
 C     2.154516    -0.873119     2.141222
 C     2.142820    -2.219342     2.518045
 H     1.516286    -2.921977     1.965257
 C     2.904588     0.048621     2.878520
 H     2.872488     1.107040     2.615745
 C     2.909868    -2.653821     3.596174
 H     2.914962    -3.700325     3.905865
 C     3.678060    -0.382149     3.952807
 H     4.275831     0.318830     4.538012
 C     3.679733    -1.730056     4.293675
 F     4.420833    -2.141627     5.319948
 H     2.671557    -2.420468    -0.184945
 H     2.808246    -1.876856    -1.858512
 C     4.518803    -1.400011    -0.646513
 C     5.292776    -0.955367    -1.726901
 H     4.817175    -0.800229    -2.699591
 C     5.156847    -1.607430     0.583267
 H     4.581152    -1.962555     1.440026
 C     6.656103    -0.709668    -1.589831
 H     7.264009    -0.366033    -2.428659
 C     6.519572    -1.368251     0.737162
 H     7.021519    -1.530582     1.692643
 C     7.253424    -0.916277    -0.352544
 F     8.556594    -0.682633    -0.210529
 H     3.812800     0.947317     0.576909
 H     3.721993     1.244643    -1.147939
 C     2.484900     2.574976    -0.005340
 C     3.010274     3.702652    -0.647889
 H     3.878328     3.592022    -1.303096
 C     1.361306     2.743593     0.815130
 H     0.899923     1.878934     1.293088
 C     2.441507     4.961264    -0.481914
 H     2.841149     5.842158    -0.987124
 C     0.775913     3.994367     0.986661
 H    -0.115043     4.124321     1.603447
 C     1.324685     5.089636     0.334546
 F     0.764971     6.288922     0.487395
 C    -2.547350     2.224069     1.035451
 C    -2.753262     1.893143     2.378355
 H    -2.111640     1.148376     2.851043
 C    -3.326905     3.219186     0.437741
 H    -3.116751     3.505015    -0.594608
 C    -3.765259     2.516163     3.104274
 H    -3.946866     2.271039     4.152216
 C    -4.339108     3.845833     1.159157
 H    -4.960587     4.622959     0.710991
 C    -4.554161     3.477651     2.482499
 F    -5.524108     4.070462     3.174821
 H    -3.449301     1.339547    -1.549994
 H    -3.027761    -0.130532    -2.413560
 C    -4.460740    -0.439139    -0.852590
 C    -4.939787    -1.594689    -1.482857
 H    -4.424456    -1.973306    -2.369015
 C    -5.138478     0.020534     0.285000
 H    -4.802826     0.927501     0.790592
 C    -6.052026    -2.278862    -1.001592
 H    -6.425860    -3.179457    -1.491694
 C    -6.247049    -0.656907     0.786654
 H    -6.778700    -0.301509     1.671132
 C    -6.690798    -1.802464     0.135977
 F    -7.752733    -2.451697     0.609996
 H    -0.928184    -0.777626     1.476844
 H    -2.712867    -0.659066     1.433595
 C    -1.926109    -2.446246     0.556099
 C    -3.135941    -3.129138     0.723765
 H    -4.017306    -2.585370     1.070716
 C    -0.808305    -3.175507     0.130161
 H     0.140548    -2.656355     0.000104
 C    -3.239777    -4.492243     0.460235
 H    -4.182456    -5.027005     0.588750
 C    -0.893329    -4.538021    -0.139062
 H    -0.027343    -5.110015    -0.477232
 C    -2.114586    -5.180376     0.025745
 F    -2.204900    -6.484909    -0.231134
