  98
scf done:    -2603.000979
 C    -2.426338    -0.822274    -2.187973
 H    -2.781863    -1.856688    -2.188894
 H    -3.226969    -0.087269    -2.064077
 C    -1.291044    -0.482195    -2.999572
 H    -0.825266    -1.269425    -3.601580
 H    -1.249965     0.502430    -3.474414
 H    -1.275535     1.077753    -0.951847
Ir    -0.727227    -0.455545    -0.912104
 O    -2.536208     0.628964     1.754192
 O    -2.252421    -1.807445     1.782107
 O    -0.272761    -0.439429     2.360553
 O     2.264145     0.075308     0.489904
 O     2.371745     0.389392    -2.037623
 O     1.432291     2.146162    -0.584266
 P     1.332070     0.538923    -0.786025
 P    -1.444530    -0.503388     1.243963
 C    -0.195647    -2.314084    -0.856489
 O     0.070867    -3.426956    -0.780511
 C    -2.435341     1.977524     1.528918
 C    -1.369011     2.702201     2.054195
 H    -0.591853     2.171591     2.603301
 C    -3.465230     2.599154     0.808956
 C    -4.578154     1.780351     0.233764
 H    -5.266780     2.403686    -0.352198
 H    -4.178192     0.990942    -0.420808
 H    -5.155748     1.275767     1.024471
 C    -1.319204     4.082379     1.875051
 H    -0.479613     4.649827     2.283033
 C    -3.399006     3.987256     0.659505
 H    -4.197455     4.493865     0.110535
 C    -2.340546     4.728555     1.183002
 H    -2.312519     5.811399     1.043390
 C    -3.665187    -1.966827     1.856526
 H    -3.822505    -2.728841     2.636527
 H    -4.119338    -1.026600     2.202649
 C    -4.280117    -2.417555     0.549151
 H    -5.369124    -2.503976     0.713374
 H    -4.143954    -1.626286    -0.206961
 C    -3.726495    -3.735670     0.028781
 H    -3.820622    -4.502720     0.818122
 H    -2.645292    -3.623397    -0.148479
 C    -4.415244    -4.219270    -1.236804
 H    -5.491614    -4.386745    -1.069668
 H    -4.323012    -3.482995    -2.051186
 H    -3.982711    -5.165393    -1.595435
 C    -0.228047    -1.162615     3.589348
 H     0.363700    -0.536258     4.275907
 H    -1.240911    -1.269746     4.006964
 C     0.429037    -2.512378     3.378739
 H     0.448603    -3.043901     4.346861
 H    -0.219203    -3.105492     2.711670
 C     1.831012    -2.416497     2.790176
 H     2.500476    -1.924784     3.518518
 H     1.802503    -1.749101     1.915296
 C     2.404089    -3.763822     2.383234
 H     2.454846    -4.464099     3.233206
 H     1.784444    -4.233760     1.602208
 H     3.422210    -3.657831     1.977955
 C     3.461222     0.664614     0.839328
 C     4.636152     0.284107     0.195618
 H     4.583666    -0.439649    -0.615571
 C     3.470257     1.591226     1.892334
 C     2.192658     1.997968     2.553940
 H     1.622374     2.665162     1.888562
 H     1.551507     1.124094     2.736702
 H     2.383808     2.521277     3.500949
 C     5.854076     0.829104     0.595013
 H     6.774104     0.527858     0.088837
 C     4.707159     2.118023     2.276876
 H     4.735641     2.837141     3.100224
 C     5.890460     1.748925     1.639912
 H     6.841335     2.178044     1.963987
 C     2.307297    -0.596251    -3.058338
 H     1.317057    -1.081518    -3.036731
 H     2.395693    -0.058279    -4.015140
 C     3.420949    -1.613221    -2.913011
 H     3.492033    -2.179649    -3.858004
 H     4.376187    -1.066842    -2.817741
 C     3.240228    -2.579756    -1.748998
 H     2.374017    -3.229530    -1.952677
 H     2.978886    -2.017887    -0.836586
 C     4.466694    -3.435231    -1.479781
 H     4.748674    -4.026990    -2.365657
 H     5.336710    -2.814881    -1.208666
 H     4.290439    -4.137191    -0.651001
 C     1.645417     3.077453    -1.641280
 H     1.855630     4.032590    -1.135782
 H     2.543068     2.781178    -2.204287
 C     0.445852     3.203693    -2.557340
 H     0.728577     3.855171    -3.403086
 H     0.233641     2.212451    -2.995527
 C    -0.799643     3.740646    -1.868517
 H    -0.622669     4.786665    -1.562493
 H    -0.961111     3.178639    -0.935654
 C    -2.044072     3.652230    -2.733626
 H    -1.915336     4.181263    -3.692273
 H    -2.287193     2.601816    -2.962438
 H    -2.916736     4.086540    -2.224083
