  86
scf done:    -2993.957827
 C    -0.238806    -3.303183    -2.088956
 H    -0.539325    -4.216659    -1.566246
 H    -0.854054    -3.084371    -2.967236
 C     1.148009    -2.933727    -2.119938
 H     1.886757    -3.564092    -1.614162
 H     1.543216    -2.424506    -3.003860
 H    -0.238633    -0.742059    -2.141211
Ir     0.102709    -1.601924    -0.787949
 O    -1.554145     1.117513    -0.060011
 C    -3.389199    -0.802215    -0.708593
 C    -2.057947    -0.801731     1.842907
 O     1.772641     0.436384     1.282385
 C     3.424810    -0.947590    -0.393265
 C     2.048765     1.406300    -1.272047
 P     1.799368    -0.118990    -0.311497
 P    -1.753339    -0.555040     0.060214
 C     0.390856    -2.712590     0.757521
 O     0.539967    -3.375046     1.681173
 C    -2.531162     2.044609     0.194885
 C    -2.825986     2.413109     1.508112
 H    -2.279395     1.945190     2.326817
 C    -3.192632     2.635910    -0.894562
 C    -2.836130     2.263039    -2.299975
 H    -1.821145     2.609522    -2.548084
 H    -2.846127     1.173062    -2.445370
 H    -3.535594     2.715262    -3.015686
 C    -3.816467     3.360445     1.757281
 H    -4.047961     3.642925     2.786829
 C    -4.180536     3.584755    -0.614505
 H    -4.711542     4.049326    -1.449799
 C    -4.501514     3.943328     0.693445
 H    -5.281410     4.684965     0.879936
 C    -3.452171    -1.580530    -1.870567
 H    -2.534430    -2.052644    -2.228056
 C    -4.563246    -0.195647    -0.229847
 H    -4.546171     0.408776     0.678591
 C    -4.651726    -1.748902    -2.555187
 H    -4.716237    -2.354438    -3.460794
 C    -5.766409    -0.352078    -0.908867
 H    -6.685707     0.118424    -0.556241
 C    -5.792503    -1.124455    -2.065730
 F    -6.942416    -1.272921    -2.715264
 C    -3.159228    -1.500583     2.348005
 H    -3.929323    -1.876675     1.672007
 C    -1.061046    -0.365141     2.730722
 H    -0.167753     0.133128     2.343351
 C    -3.285106    -1.736387     3.715755
 H    -4.137088    -2.281564     4.125630
 C    -1.183434    -0.583708     4.097025
 H    -0.418907    -0.246856     4.799392
 C    -2.299773    -1.265510     4.572863
 F    -2.418886    -1.480668     5.879625
 C     2.577463     1.431871     1.785770
 C     3.824732     1.097607     2.319753
 H     4.143245     0.055836     2.308664
 C     2.115726     2.758579     1.795555
 C     0.782549     3.142939     1.231716
 H     0.907267     3.754419     0.323569
 H     0.183870     2.268913     0.954734
 H     0.209976     3.745201     1.953319
 C     4.645468     2.086319     2.852434
 H     5.620016     1.817107     3.266000
 C     2.961902     3.730693     2.343883
 H     2.618566     4.768983     2.357962
 C     4.213749     3.412025     2.860275
 H     4.849243     4.196642     3.277148
 C     4.257139    -0.842036    -1.512599
 H     3.997114    -0.161005    -2.325705
 C     3.764811    -1.855214     0.620368
 H     3.107861    -1.973848     1.485716
 C     5.419070    -1.604916    -1.611201
 H     6.078637    -1.531994    -2.477685
 C     4.924549    -2.615955     0.538160
 H     5.204073    -3.321536     1.322536
 C     5.740882    -2.477519    -0.580578
 F     6.851354    -3.204438    -0.665665
 C     3.211348     2.182649    -1.133978
 H     4.031368     1.841724    -0.498970
 C     1.014839     1.867053    -2.094232
 H     0.110646     1.262885    -2.187113
 C     3.332709     3.398589    -1.796780
 H     4.224867     4.018554    -1.695329
 C     1.128289     3.077820    -2.769031
 H     0.334171     3.452231    -3.417525
 C     2.285715     3.829839    -2.605271
 F     2.399172     4.990229    -3.242539
