  92
scf done:    -2722.810011
 C    -2.664230     0.263787    -2.813235
 H    -3.318480    -0.543582    -3.155958
 H    -3.194772     1.071261    -2.300498
 C    -1.477037     0.572627    -3.559262
 H    -1.256975    -0.000929    -4.465663
 H    -1.140954     1.612609    -3.607766
 H    -0.922775     1.111243    -1.129137
Ir    -0.942064    -0.413533    -1.709527
 O    -2.823860     0.089381     1.057952
 O    -3.053705    -2.154464     0.003312
 O    -1.006460    -1.626088     1.476283
 O     1.921712    -1.890950    -1.060331
 O     2.387869     0.341897    -2.117784
 O     1.600201     0.282045     0.263155
 P     1.255085    -0.383313    -1.182133
 P    -1.909254    -1.039206     0.244569
 C    -0.961462    -2.177944    -2.519203
 O    -0.970469    -3.211148    -3.007365
 C    -2.528142     1.413487     1.207128
 C    -3.597710     2.309871     1.187628
 H    -4.605120     1.923137     1.023898
 C    -1.224542     1.875747     1.401552
 H    -0.382284     1.181988     1.384065
 C    -3.372195     3.670207     1.374198
 H    -4.192865     4.389557     1.364746
 C    -0.997833     3.238426     1.582178
 H     0.011114     3.626198     1.730987
 C    -2.071096     4.119061     1.568607
 F    -1.848897     5.422938     1.744631
 C    -3.734652    -2.955621     0.961319
 H    -4.230509    -3.737666     0.366133
 H    -2.997338    -3.458813     1.608448
 C    -4.758137    -2.190985     1.778118
 H    -5.262092    -2.918702     2.439126
 H    -4.245900    -1.473753     2.439629
 C    -5.783893    -1.448939     0.933806
 H    -6.345244    -2.174033     0.318477
 H    -5.247097    -0.799060     0.224968
 C    -6.745266    -0.618704     1.767518
 H    -7.308964    -1.242747     2.479955
 H    -6.203804     0.140727     2.355152
 H    -7.477525    -0.092116     1.136880
 C    -1.312887    -1.570497     2.869322
 H    -1.828677    -0.623228     3.096733
 H    -1.998332    -2.393996     3.127322
 C    -0.036698    -1.684872     3.672371
 H    -0.321296    -1.774799     4.735629
 H     0.466775    -2.631604     3.408558
 C     0.912589    -0.513540     3.476758
 H     0.389334     0.417740     3.758008
 H     1.133671    -0.427652     2.402578
 C     2.203090    -0.635880     4.268511
 H     2.011628    -0.712179     5.351145
 H     2.772953    -1.529031     3.968135
 H     2.856319     0.236149     4.109406
 C     3.041221    -2.169205    -0.324414
 C     2.885850    -2.730383     0.943250
 H     1.874969    -2.914273     1.311561
 C     4.313638    -1.911801    -0.835291
 H     4.404869    -1.469497    -1.828119
 C     4.008034    -3.031806     1.709812
 H     3.919845    -3.476052     2.702947
 C     5.438227    -2.206994    -0.068715
 H     6.446847    -2.015941    -0.439590
 C     5.271259    -2.761117     1.195160
 F     6.347068    -3.044368     1.929615
 C     2.021522     1.141887    -3.241756
 H     2.886319     1.106593    -3.922311
 H     1.158700     0.679151    -3.746516
 C     1.692750     2.566248    -2.846444
 H     1.319087     3.089047    -3.744544
 H     0.844998     2.540467    -2.138661
 C     2.858149     3.339394    -2.246017
 H     3.659383     3.435194    -2.999948
 H     3.293955     2.749314    -1.423774
 C     2.461492     4.714418    -1.734329
 H     2.057788     5.344035    -2.543308
 H     1.679222     4.640543    -0.961185
 H     3.317644     5.247241    -1.293061
 C     2.848920     0.830171     0.680736
 H     3.318126     0.121738     1.383107
 H     3.519224     0.936455    -0.185061
 C     2.603520     2.169644     1.336340
 H     2.055590     2.807971     0.623271
 H     1.937373     2.028574     2.204475
 C     3.885827     2.860653     1.773328
 H     4.552460     2.976122     0.900285
 H     4.429953     2.211210     2.481823
 C     3.635184     4.219383     2.407000
 H     3.130195     4.898466     1.701311
 H     2.992206     4.132032     3.297552
 H     4.573131     4.701835     2.719999
