  52
scf done:    -2671.198579
 C    -4.587526     0.930134    -0.362367
 H    -5.114484     1.145458     0.573009
 H    -4.617845     1.759933    -1.075088
 C    -4.590411    -0.421158    -0.865000
 H    -5.118695    -1.194505    -0.297728
 H    -4.619951    -0.583605    -1.946420
 H    -2.380840     0.653078    -1.647053
Ir    -2.626788     0.073273    -0.128649
 O     0.297030     1.507770    -0.517951
 C    -1.537946     3.431048     0.095358
 C    -0.467541     1.743025     2.116878
 O     0.199895    -1.526771     0.420761
 C    -1.566090    -3.276662    -0.702460
 C    -0.250911    -1.325265    -2.296339
 P    -1.077464    -1.519470    -0.688224
 P    -1.103704     1.690041     0.409474
 C    -2.969721    -0.605835     1.634251
 O    -3.154127    -1.015887     2.691215
 C     1.444942     2.216523    -0.330612
 C     2.417587     1.750823     0.559063
 H     2.227810     0.835033     1.121114
 C     1.684018     3.373200    -1.076669
 H     0.926952     3.713626    -1.785343
 C     3.616104     2.441239     0.710271
 H     4.381385     2.082254     1.400274
 C     2.881253     4.067503    -0.928547
 H     3.077525     4.970033    -1.509542
 C     3.841620     3.600257    -0.031969
Cl     5.332399     4.462214     0.154658
 H    -2.406339     3.675152     0.724821
 H    -0.711727     4.121732     0.322122
 H    -1.840818     3.532034    -0.956085
 H     0.298594     2.517037     2.270632
 H    -1.325835     1.941124     2.776314
 H    -0.061589     0.752924     2.367943
 C     1.337027    -2.263977     0.281944
 C     2.422247    -1.753947    -0.436907
 H     2.333629    -0.774882    -0.909909
 C     1.445691    -3.505923     0.912558
 H     0.599449    -3.883490     1.489365
 C     3.603727    -2.482709    -0.532376
 H     4.456000    -2.089302    -1.088731
 C     2.625358    -4.238726     0.819911
 H     2.719540    -5.207818     1.312506
 C     3.699347    -3.725084     0.093863
Cl     5.169080    -4.634690    -0.023728
 H    -0.727770    -3.947574    -0.944688
 H    -1.985195    -3.539307     0.279196
 H    -2.360666    -3.392710    -1.454217
 H     0.172513    -0.312611    -2.338739
 H     0.527888    -2.081689    -2.471107
 H    -1.029532    -1.408110    -3.068491
