  86
scf done:    -2445.897004
 C    -1.087042    -1.349331    -3.381815
 H    -1.091561    -0.577195    -4.158256
 H    -0.318508    -2.113266    -3.530215
 C    -2.324608    -1.704427    -2.746155
 H    -3.245095    -1.192921    -3.043691
 H    -2.484986    -2.736147    -2.421957
 H    -0.488121    -2.072216    -1.007254
Ir    -1.092245    -0.593297    -1.361859
 O     1.439659    -0.335613     0.690902
 O     2.146740    -1.143084    -1.601460
 O     1.831849     1.288785    -1.250684
 O    -1.510175     0.209017     1.948041
 O    -3.658664    -0.433645     0.717932
 O    -2.040045    -2.137003     1.495686
 P    -2.073209    -0.736886     0.683463
 P     1.086284    -0.127271    -0.922371
 C    -1.907383     1.072922    -1.879912
 O    -2.438812     2.033836    -2.213111
 C     2.704761    -0.464617     1.196157
 C     3.141592    -1.723138     1.608810
 H     2.480633    -2.581202     1.474888
 C     3.540485     0.642898     1.339344
 H     3.188547     1.619233     1.007054
 C     4.409586    -1.868255     2.163975
 H     4.742969    -2.860324     2.481353
 C     4.809471     0.479464     1.889219
 H     5.460684     1.352109     1.991945
 C     5.268725    -0.772759     2.314213
 C     6.624500    -0.931758     2.939221
 H     7.053575    -1.921651     2.725639
 H     6.570071    -0.829903     4.036205
 H     7.328342    -0.169233     2.575449
 C     3.435212    -0.815692    -2.150053
 H     3.819402     0.080224    -1.638511
 C     3.274056    -0.522155    -3.627654
 H     2.598599     0.330825    -3.780091
 H     2.852111    -1.396473    -4.146442
 H     4.246434    -0.280112    -4.082770
 C     4.347228    -1.989099    -1.867436
 H     4.441271    -2.152145    -0.784977
 H     3.946875    -2.904994    -2.328297
 H     5.349239    -1.799516    -2.280456
 C     1.117610     2.512642    -1.475190
 H     0.169888     2.472731    -0.910914
 C     0.833312     2.659970    -2.956477
 H     0.298025     1.778090    -3.336368
 H     1.774358     2.764436    -3.518563
 H     0.211270     3.547167    -3.145345
 C     1.971571     3.634591    -0.926995
 H     2.132594     3.507633     0.151829
 H     2.947702     3.656470    -1.435709
 H     1.473038     4.602181    -1.083746
 C    -1.151491     1.514875     1.809254
 C     0.029005     1.942382     2.420661
 H     0.643129     1.210461     2.946819
 C    -1.935564     2.429745     1.105854
 H    -2.860549     2.098209     0.631778
 C     0.403583     3.278042     2.340854
 H     1.327446     3.599967     2.830678
 C    -1.533562     3.762259     1.017462
 H    -2.153001     4.464110     0.452360
 C    -0.366145     4.215882     1.637253
 C     0.042026     5.659240     1.575836
 H    -0.240060     6.192808     2.498871
 H    -0.441527     6.179175     0.736302
 H     1.131255     5.766641     1.460810
 C    -4.450045    -0.586852     1.914801
 H    -3.764459    -0.672011     2.773967
 C    -5.262441    -1.858018     1.788271
 H    -4.593561    -2.721163     1.671063
 H    -5.924276    -1.802650     0.910478
 H    -5.882459    -2.010337     2.684754
 C    -5.292138     0.661324     2.064719
 H    -4.656821     1.550835     2.181683
 H    -5.930566     0.800838     1.178904
 H    -5.938959     0.582314     2.951220
 C    -0.790876    -2.790881     1.780706
 H     0.002558    -2.283495     1.207173
 C    -0.909249    -4.221618     1.306061
 H    -1.108895    -4.247219     0.225247
 H    -1.733383    -4.733294     1.826929
 H     0.022646    -4.772778     1.503274
 C    -0.498835    -2.650313     3.259812
 H    -0.450116    -1.587911     3.534550
 H    -1.287736    -3.132827     3.857523
 H     0.464247    -3.121509     3.508330
