  58
scf done:    -1830.830157
 C     0.347846    -3.974816     0.321685
 H     0.323425    -4.572635    -0.595466
 H     1.280135    -4.087003     0.883825
 C    -0.881865    -3.764099     1.045381
 H    -1.805015    -4.207710     0.657736
 H    -0.851544    -3.719289     2.138201
 H     0.586404    -1.689015     1.476138
Ir    -0.278310    -1.927707     0.096064
 O     1.675904     0.716977     0.036298
 C     3.072747    -1.455447    -0.889241
 C     1.206331    -0.086315    -2.536937
 O    -1.856087     0.927336    -0.405340
 C    -3.261895    -0.592306     1.415013
 C    -0.942458     0.833909     2.189392
 P    -1.582590    -0.187794     0.826423
 P     1.413642    -0.703517    -0.833115
 C    -1.292286    -2.256242    -1.499533
 O    -1.895522    -2.436505    -2.460084
 C     2.816390     1.470687    -0.007738
 C     2.978710     2.430225    -1.010913
 H     2.192972     2.550017    -1.758222
 C     3.775273     1.313731     1.006899
 C     3.590014     0.308688     2.105152
 H     3.783656     0.763977     3.088012
 H     2.572481    -0.103577     2.104471
 H     4.293820    -0.532635     1.996598
 C     4.115962     3.231790    -1.033797
 H     4.237136     3.980761    -1.819786
 C     4.907141     2.136168     0.960957
 H     5.663110     2.030016     1.744316
 C     5.087867     3.080465    -0.045969
 H     5.982937     3.706410    -0.053319
 H     3.014594    -2.303136    -1.587752
 H     3.848505    -0.750423    -1.224506
 H     3.322412    -1.851851     0.103581
 H     2.083448     0.470094    -2.897761
 H     1.029335    -0.953188    -3.191089
 H     0.310971     0.551632    -2.561286
 C    -2.595649     2.072668    -0.272329
 C    -3.983365     2.010267    -0.432460
 H    -4.441063     1.044089    -0.650308
 C    -1.950115     3.301412    -0.053329
 C    -0.457473     3.398845     0.051414
 H    -0.143718     3.681282     1.069259
 H     0.027507     2.446492    -0.191109
 H    -0.070650     4.173877    -0.627864
 C    -4.754641     3.163525    -0.338749
 H    -5.838109     3.104948    -0.465663
 C    -2.751751     4.446911     0.034938
 H    -2.264460     5.411689     0.203288
 C    -4.135856     4.389073    -0.094545
 H    -4.730721     5.302152    -0.019997
 H    -3.808037    -1.116780     0.618475
 H    -3.139839    -1.290919     2.256117
 H    -3.828642     0.290803     1.745175
 H    -1.581445     1.709126     2.380919
 H    -0.903869     0.199800     3.086990
 H     0.078406     1.146760     1.935768
