  92
scf done:    -2874.133728
 C    -1.106079     1.433156    -2.761056
 H    -1.479954     0.778799    -3.554581
 H    -1.846163     2.134312    -2.369597
 C     0.271630     1.803427    -2.744607
 H     0.933031     1.438415    -3.536482
 H     0.560548     2.777324    -2.338424
 H    -0.454354     1.681944    -0.276413
Ir    -0.104927     0.353665    -1.164021
 O    -3.284316     0.665133    -0.258573
 C    -2.860273    -1.745837    -1.222626
 C    -2.179255    -1.080954     1.511856
 O     2.237733    -0.214158     1.404220
 C     3.457943     0.158928    -0.974175
 C     2.213708     2.283729     0.482238
 P     1.909589     0.563378    -0.061753
 P    -2.042659    -0.466868    -0.210701
 C     0.225176    -1.228741    -2.205895
 O     0.391331    -2.193250    -2.807617
 C    -3.174959     1.945330     0.197974
 C    -3.648264     2.970282    -0.623550
 H    -4.064851     2.714785    -1.599358
 C    -2.654743     2.248326     1.458001
 H    -2.310319     1.445133     2.109636
 C    -3.585418     4.294430    -0.200682
 H    -3.945937     5.110067    -0.829831
 C    -2.580986     3.572849     1.880631
 H    -2.169333     3.831909     2.857545
 C    -3.041856     4.581740     1.045696
 F    -2.969584     5.850659     1.450748
 C    -3.853901    -1.358589    -2.129934
 H    -4.173061    -0.316017    -2.151733
 C    -2.425129    -3.086641    -1.174450
 C    -1.364968    -3.565232    -0.225399
 H    -1.778253    -3.744994     0.779916
 H    -0.552112    -2.835622    -0.100354
 H    -0.922396    -4.505471    -0.582106
 C    -4.437695    -2.288390    -2.983743
 H    -5.214293    -1.972487    -3.684098
 C    -3.028208    -4.001214    -2.045945
 H    -2.697497    -5.043046    -2.019883
 C    -4.023904    -3.617652    -2.939091
 H    -4.471704    -4.358110    -3.606152
 C    -0.990589    -1.112575     2.244792
 H    -0.075572    -0.779181     1.753446
 C    -3.390910    -1.509103     2.103591
 C    -4.703087    -1.536703     1.376612
 H    -4.714808    -2.334371     0.617151
 H    -4.892887    -0.595597     0.844636
 H    -5.528077    -1.723441     2.077449
 C    -0.964851    -1.558782     3.562343
 H    -0.021902    -1.584962     4.110958
 C    -3.341248    -1.945281     3.432691
 H    -4.268775    -2.275315     3.908409
 C    -2.151434    -1.974246     4.157945
 H    -2.156250    -2.325997     5.192591
 C     2.312612    -1.556735     1.577755
 C     2.516259    -1.999915     2.890296
 H     2.616187    -1.255423     3.682524
 C     2.204529    -2.491076     0.543129
 H     2.071556    -2.165967    -0.487217
 C     2.587377    -3.358743     3.173345
 H     2.743667    -3.719803     4.191426
 C     2.270570    -3.854419     0.827268
 H     2.182121    -4.595550     0.031029
 C     2.454725    -4.275357     2.135845
 F     2.516064    -5.580691     2.405082
 C     3.339464    -0.140141    -2.335900
 H     2.348440    -0.109971    -2.789556
 C     4.737283     0.156774    -0.366388
 C     4.986965     0.472905     1.080252
 H     4.766570    -0.397721     1.717352
 H     4.363017     1.301019     1.440232
 H     6.042366     0.739249     1.230268
 C     4.448714    -0.456319    -3.113849
 H     4.325618    -0.685753    -4.174408
 C     5.837729    -0.166061    -1.170195
 H     6.831016    -0.170384    -0.713211
 C     5.706917    -0.473839    -2.521510
 H     6.593214    -0.720744    -3.111066
 C     2.943834     3.096606    -0.394633
 H     3.382887     2.659690    -1.294250
 C     1.633280     2.843025     1.640787
 C     0.812444     2.042551     2.605314
 H     1.431838     1.326448     3.163387
 H     0.050075     1.456811     2.073571
 H     0.304290     2.701365     3.322423
 C     3.120397     4.452997    -0.138575
 H     3.692405     5.068722    -0.836202
 C     1.832282     4.207518     1.879034
 H     1.387714     4.649973     2.774598
 C     2.563753     5.010482     1.008271
 H     2.692067     6.073542     1.225283
