 102
scf done:    -3054.973224
 C    -0.770121    -3.793810    -0.632408
 H    -1.296374    -4.306022     0.180280
 H    -1.326369    -3.791543    -1.574285
 C     0.666433    -3.803591    -0.656420
 H     1.217330    -4.322956     0.134571
 H     1.185941    -3.799615    -1.618953
 H    -0.054367    -1.600386    -1.724855
Ir    -0.025690    -1.840293    -0.105281
 O    -2.019270     0.439260    -1.517323
 C    -3.422715    -1.495267    -0.282635
 C    -2.207839     0.688821     1.218122
 O     2.002954     0.323407     1.399305
 C     3.379668    -1.553250     0.053670
 C     2.177642     0.723823    -1.327891
 P     1.865639    -0.539418    -0.052269
 P    -1.898298    -0.507470    -0.126228
 C    -0.026171    -2.224964     1.779719
 O    -0.043842    -2.469294     2.901875
 C    -2.511840     1.707569    -1.611378
 C    -3.678097     1.941630    -2.341040
 H    -4.207611     1.095583    -2.780885
 C    -1.835422     2.783802    -1.034957
 H    -0.922401     2.599433    -0.469637
 C    -4.161494     3.238922    -2.481154
 H    -5.078107     3.406521    -3.054252
 C    -2.336105     4.074951    -1.174413
 H    -1.799078     4.904350    -0.705989
 C    -3.505830     4.330736    -1.897984
 C    -4.020271     5.730591    -2.074039
 H    -3.585274     6.205524    -2.969721
 H    -3.764389     6.365567    -1.213143
 H    -5.113282     5.747210    -2.196871
 C    -4.070782    -1.662009    -1.502442
 H    -3.695549    -1.119625    -2.372054
 C    -3.862960    -2.228142     0.834639
 O    -3.153422    -2.038775     1.964237
 C    -3.448779    -2.785344     3.110412
 H    -4.454278    -2.550204     3.501143
 H    -2.694748    -2.512599     3.858647
 H    -3.382416    -3.869782     2.915459
 C    -5.167604    -2.518021    -1.618510
 H    -5.667076    -2.639664    -2.582047
 C    -4.961709    -3.082362     0.726750
 H    -5.313923    -3.645028     1.591854
 C    -5.611825    -3.218065    -0.501748
 H    -6.469968    -3.890088    -0.579439
 C    -1.140340     1.017195     2.054224
 H    -0.180260     0.518472     1.902032
 C    -3.446414     1.340510     1.400391
 O    -4.437082     0.989550     0.567462
 C    -5.645438     1.694295     0.578056
 H    -6.172507     1.587882     1.542087
 H    -6.263321     1.255430    -0.215160
 H    -5.488392     2.764623     0.360442
 C    -1.272846     1.982090     3.051777
 H    -0.419102     2.231864     3.684322
 C    -3.582657     2.308211     2.400279
 H    -4.531914     2.825045     2.542067
 C    -2.496288     2.623098     3.216341
 H    -2.617197     3.385795     3.989995
 C     2.560415     1.549502     1.606871
 C     1.973795     2.701842     1.081361
 H     1.083093     2.613145     0.459706
 C     3.697253     1.663193     2.409406
 H     4.155210     0.758786     2.811758
 C     2.535609     3.948872     1.342730
 H     2.068918     4.839877     0.913699
 C     4.240957     2.916563     2.670792
 H     5.133137     2.989046     3.299712
 C     3.676765     4.084138     2.140118
 C     4.256631     5.434787     2.448098
 H     3.857184     5.833737     3.395856
 H     4.018113     6.165004     1.661140
 H     5.351098     5.390942     2.551813
 C     3.971627    -1.845086     1.279229
 H     3.565490    -1.381639     2.180201
 C     3.861519    -2.184399    -1.107843
 O     3.212443    -1.875514    -2.246507
 C     3.566171    -2.505569    -3.442881
 H     4.605550    -2.273993    -3.735613
 H     2.884561    -2.118484    -4.210493
 H     3.447633    -3.601315    -3.375689
 C     5.050253    -2.727171     1.362749
 H     5.503882    -2.946283     2.331666
 C     4.941637    -3.066091    -1.031252
 H     5.323632    -3.553884    -1.928541
 C     5.533498    -3.328949     0.205714
 H     6.376450    -4.022390     0.257013
 C     1.123513     1.086231    -2.166592
 H     0.172816     0.556799    -2.071675
 C     3.414517     1.392224    -1.451059
 O     4.394937     0.996017    -0.626066
 C     5.589450     1.721633    -0.558257
 H     6.145373     1.683595    -1.511175
 H     6.192800     1.247231     0.225428
 H     5.404534     2.773323    -0.280801
 C     1.266416     2.109328    -3.103033
 H     0.423377     2.386711    -3.738484
 C     3.560126     2.418459    -2.389289
 H     4.507589     2.949229    -2.483402
 C     2.485594     2.771411    -3.205383
 H     2.612836     3.579398    -3.930579
