  90
scf done:    -3294.757816
 C    -0.418698    -3.406949     1.528118
 H     0.106745    -4.252774     1.074944
 H    -0.098646    -3.184792     2.549884
 C    -1.768326    -3.126371     1.140323
 H    -2.261032    -3.760075     0.396622
 H    -2.458142    -2.697511     1.871735
 H    -0.719353    -0.861734     1.694842
Ir    -0.454465    -1.637648     0.282045
 O     2.289316    -0.359013     1.822520
 O     2.793134    -1.867431    -0.075466
 O     1.940418     0.529864    -0.545950
 O    -1.490541     0.372706    -2.158277
 O    -3.336020    -0.012508    -0.423423
 O    -1.512271     1.544844     0.077710
 P    -1.689875     0.045147    -0.558126
 P     1.639278    -0.804898     0.372789
 C    -0.207224    -2.640508    -1.361464
 O    -0.072760    -3.225950    -2.333929
 C     1.624680     0.311771     2.819530
 C     0.782992     1.389004     2.547939
 H     0.581144     1.682220     1.516001
 C     1.868790    -0.125414     4.129442
 C     2.758923    -1.304807     4.372175
 H     2.417064    -2.181788     3.800928
 H     3.791387    -1.102236     4.044979
 H     2.783215    -1.568034     5.438052
 C     0.179241     2.068327     3.605624
 H    -0.480619     2.911928     3.393438
 C     1.248836     0.574634     5.167077
 H     1.425307     0.250509     6.196255
 C     0.414380     1.663938     4.916539
 H    -0.055031     2.193749     5.748267
 C     4.113676    -1.653377    -0.397900
 C     5.001589    -1.032896     0.480451
 H     4.646786    -0.693451     1.453087
 C     4.544982    -2.109929    -1.641528
 H     3.827907    -2.605862    -2.298188
 C     6.320008    -0.825436     0.087191
 H     7.033528    -0.323696     0.742845
 C     5.866761    -1.915241    -2.031119
 H     6.231685    -2.257381    -3.001089
 C     6.735917    -1.263217    -1.164852
 F     7.997495    -1.058785    -1.540198
 C     3.102482     1.264026    -0.654583
 C     3.811569     1.199554    -1.853260
 H     3.445228     0.553465    -2.651894
 C     3.535420     2.089851     0.381054
 H     2.962531     2.156016     1.305992
 C     4.984438     1.929525    -2.006633
 H     5.567586     1.883109    -2.927735
 C     4.710366     2.822893     0.230200
 H     5.077508     3.472094     1.026921
 C     5.425062     2.727805    -0.956606
 F     6.553061     3.422170    -1.096392
 C    -2.015533     1.506026    -2.751623
 C    -3.365289     1.555551    -3.088773
 H    -4.003787     0.697957    -2.874033
 C    -1.145486     2.576042    -3.007558
 C     0.298549     2.486605    -2.628120
 H     0.413682     2.407575    -1.537005
 H     0.763758     1.582498    -3.048016
 H     0.855666     3.366086    -2.977081
 C    -3.881988     2.703968    -3.684815
 H    -4.941586     2.748282    -3.945619
 C    -1.691483     3.713244    -3.611908
 H    -1.033568     4.560542    -3.822996
 C    -3.044178     3.786322    -3.943504
 H    -3.441705     4.689859    -4.411190
 C    -4.047876    -1.173258    -0.563560
 C    -5.017006    -1.461024     0.395948
 H    -5.162174    -0.763100     1.222240
 C    -3.831666    -2.039688    -1.636081
 H    -3.077080    -1.800997    -2.388100
 C    -5.772789    -2.623885     0.289629
 H    -6.537737    -2.875379     1.026266
 C    -4.580055    -3.210195    -1.738889
 H    -4.427835    -3.909134    -2.563054
 C    -5.539713    -3.489092    -0.774144
 F    -6.257280    -4.607268    -0.872284
 C    -2.473045     2.284555     0.729632
 C    -2.877224     1.922753     2.013385
 H    -2.449424     1.033244     2.479385
 C    -2.993498     3.414675     0.105330
 H    -2.670114     3.664802    -0.906775
 C    -3.812704     2.704805     2.685077
 H    -4.149075     2.450583     3.691768
 C    -3.925197     4.201139     0.778136
 H    -4.352096     5.093423     0.317182
 C    -4.323956     3.835909     2.058386
 F    -5.218109     4.586684     2.701391
