 102
scf done:    -3054.971431
 C    -0.737722    -3.266634    -1.430634
 H    -1.244807    -3.990146    -0.782842
 H    -1.311307    -3.012039    -2.326691
 C     0.698748    -3.256705    -1.480823
 H     1.266233    -3.969584    -0.872972
 H     1.197236    -2.985597    -2.415422
 H    -0.046340    -0.855588    -1.883552
Ir     0.008158    -1.531402    -0.394378
 O    -1.737373     1.149423    -0.996961
 C    -3.378769    -1.024213    -0.652428
 C    -2.282020     0.349802     1.642059
 O     1.826946     0.522146     1.533092
 C     3.308685    -1.397102     0.337846
 C     2.426433     1.055092    -1.075034
 P     1.891883    -0.285736     0.043167
 P    -1.855815    -0.222389    -0.047345
 C     0.013899    -2.432107     1.303518
 O    -0.014484    -2.991167     2.306844
 C    -2.488690     2.273034    -1.178736
 C    -2.942255     3.055679    -0.117264
 H    -2.709590     2.758303     0.903734
 C    -2.691228     2.675539    -2.512370
 C    -2.091152     1.898801    -3.646306
 H    -1.018830     2.129632    -3.754335
 H    -2.146592     0.813492    -3.484337
 H    -2.583119     2.145123    -4.597477
 C    -3.661935     4.220325    -0.371130
 H    -4.014482     4.826774     0.466835
 C    -3.422275     3.846026    -2.735421
 H    -3.598323     4.162905    -3.767302
 C    -3.917062     4.613167    -1.682750
 H    -4.485020     5.523255    -1.887931
 C    -4.060912    -0.626119    -1.797294
 H    -3.743809     0.271514    -2.325498
 C    -3.814537    -2.173951     0.035905
 O    -3.118677    -2.480127     1.147339
 C    -3.394827    -3.661296     1.845543
 H    -4.408571    -3.648137     2.282734
 H    -2.653066    -3.723242     2.651078
 H    -3.294120    -4.547833     1.195621
 C    -5.158512    -1.349900    -2.267555
 H    -5.682111    -1.020519    -3.167359
 C    -4.906489    -2.905626    -0.432594
 H    -5.242944    -3.797926     0.096053
 C    -5.574896    -2.487163    -1.584817
 H    -6.429846    -3.064104    -1.945642
 C    -1.251051     0.386136     2.582097
 H    -0.240939     0.117703     2.264250
 C    -3.583608     0.726384     2.045710
 O    -4.534658     0.719160     1.100837
 C    -5.837048     1.129933     1.399800
 H    -6.299211     0.494266     2.174779
 H    -6.409097     1.031571     0.468855
 H    -5.865118     2.182879     1.730699
 C    -1.480403     0.785638     3.898204
 H    -0.653710     0.814719     4.610342
 C    -3.818881     1.114602     3.368464
 H    -4.820419     1.403755     3.687551
 C    -2.767324     1.141874     4.285112
 H    -2.967340     1.451105     5.314226
 C     2.504094     1.681166     1.819206
 C     3.796275     1.614540     2.343110
 H     4.256912     0.635795     2.478361
 C     1.865755     2.916597     1.617992
 C     0.454671     3.007302     1.123570
 H     0.315658     3.887629     0.480690
 H     0.154530     2.120291     0.555382
 H    -0.244414     3.095840     1.971626
 C     4.483633     2.781693     2.660796
 H     5.493444     2.721614     3.074363
 C     2.586276     4.074653     1.934391
 H     2.109002     5.044959     1.771210
 C     3.879055     4.019787     2.447203
 H     4.411994     4.943316     2.685420
 C     3.618072    -1.830018     1.624398
 H     3.071331    -1.404296     2.468664
 C     3.974539    -1.974502    -0.759082
 O     3.595128    -1.521743    -1.968319
 C     4.149318    -2.079231    -3.123820
 H     5.240019    -1.913294    -3.175446
 H     3.671519    -1.574302    -3.972605
 H     3.947136    -3.162651    -3.189430
 C     4.598053    -2.802135     1.837534
 H     4.829817    -3.130987     2.852663
 C     4.956196    -2.944870    -0.552479
 H     5.481367    -3.391384    -1.397367
 C     5.265267    -3.350846     0.748166
 H     6.032614    -4.113764     0.900374
 C     1.431335     1.676095    -1.831804
 H     0.416292     1.274841    -1.782150
 C     3.744373     1.558950    -1.136826
 O     4.677732     0.920337    -0.416188
 C     5.981875     1.420123    -0.355318
 H     6.464041     1.427095    -1.348482
 H     6.539275     0.743395     0.304795
 H     6.004384     2.438257     0.069613
 C     1.708850     2.793392    -2.617306
 H     0.910631     3.276782    -3.184094
 C     4.024691     2.676553    -1.929948
 H     5.036853     3.077945    -1.976241
 C     3.007226     3.289377    -2.658876
 H     3.242376     4.167198    -3.266147
