 104
scf done:    -3031.277117
 C    -1.238402     0.004695     4.304251
 H    -1.562773     0.991450     4.651600
 H    -2.025205    -0.753111     4.366735
 C     0.131049    -0.393335     4.524372
 H     0.807660     0.302365     5.032053
 H     0.348305    -1.442346     4.745980
 H    -0.639955    -1.582078     2.423940
Ir    -0.181059    -0.015659     2.427717
 O    -1.984755    -1.417385     0.107248
 C    -3.405579     0.710866     1.226041
 C    -1.318689     0.976267    -0.862516
 O     1.914660    -0.140652    -0.324576
 C     3.229145    -0.761369     2.022143
 C     1.405308    -2.555453     0.547150
 P     1.580099    -0.807127     1.172346
 P    -1.722273     0.124468     0.717394
 C     0.362693     1.808103     2.691692
 O     0.693438     2.873478     2.970186
 C    -3.098782    -1.899233    -0.516582
 C    -3.919688    -2.779047     0.191319
 H    -3.658974    -3.020932     1.223266
 C    -3.381963    -1.600964    -1.851704
 H    -2.717338    -0.946818    -2.415918
 C    -5.047988    -3.324323    -0.413621
 H    -5.709692    -4.007742     0.121435
 C    -4.515415    -2.133272    -2.457652
 H    -4.770122    -1.897300    -3.492022
 C    -5.336560    -2.982690    -1.728430
 F    -6.435250    -3.478774    -2.305362
 H    -3.714372    -0.014006     1.995676
 H    -3.187253     1.641254     1.775752
 C    -4.485559     0.923348     0.203775
 C    -4.401303     1.956412    -0.738396
 H    -3.555014     2.647472    -0.721992
 C    -5.618739     0.103156     0.194003
 H    -5.706806    -0.686215     0.944755
 C    -5.406543     2.119566    -1.688465
 H    -5.330987     2.927877    -2.420032
 C    -6.638866     0.255035    -0.748709
 C    -7.827841    -0.661587    -0.750276
 H    -8.014240    -1.078146     0.250090
 H    -8.737955    -0.138760    -1.078810
 H    -7.672001    -1.511938    -1.433421
 C    -6.510972     1.271758    -1.702201
 H    -7.295750     1.410796    -2.450943
 H    -0.524849     0.338591    -1.286729
 H    -2.197231     0.885799    -1.522783
 C    -0.854890     2.406856    -0.838761
 C    -1.072731     3.273239     0.232924
 H    -1.577447     2.923832     1.134617
 C    -0.205839     2.907022    -1.976819
 H    -0.027596     2.234386    -2.820744
 C    -0.630515     4.595865     0.173408
 H    -0.789947     5.255012     1.029756
 C     0.222655     4.230664    -2.065517
 C     0.888840     4.752092    -3.305064
 H     1.023523     3.957422    -4.051929
 H     0.289589     5.553219    -3.766921
 H     1.879715     5.173164    -3.078952
 C     0.009615     5.071541    -0.962930
 H     0.350321     6.109884    -1.003473
 C     2.433061     1.043539    -0.712946
 C     2.840718     1.111875    -2.051260
 H     2.715549     0.222617    -2.673090
 C     2.585546     2.152414     0.120172
 H     2.262946     2.116058     1.158156
 C     3.399723     2.281723    -2.551535
 H     3.725951     2.357447    -3.590535
 C     3.138504     3.328643    -0.383792
 H     3.247680     4.211266     0.248019
 C     3.543066     3.378232    -1.708185
 F     4.066079     4.511337    -2.193228
 H     3.414087     0.301225     2.244598
 H     3.023948    -1.244620     2.990595
 C     4.384846    -1.392455     1.312632
 C     4.788253    -2.697907     1.620594
 H     4.289227    -3.244580     2.425563
 C     5.058206    -0.706330     0.296360
 H     4.763026     0.317910     0.057490
 C     5.822540    -3.300380     0.907906
 H     6.128317    -4.320491     1.152215
 C     6.091913    -1.297810    -0.434385
 C     6.789819    -0.526481    -1.516508
 H     7.254136    -1.196030    -2.254648
 H     6.090945     0.141110    -2.042174
 H     7.589496     0.105786    -1.096059
 C     6.463660    -2.610308    -0.118768
 H     7.266807    -3.093942    -0.681487
 H     2.124754    -3.168022     1.111581
 H     0.392432    -2.857601     0.841488
 C     1.602613    -2.707791    -0.933523
 C     0.506789    -2.591206    -1.795790
 H    -0.488887    -2.444943    -1.374221
 C     2.873408    -2.899468    -1.480598
 H     3.733785    -2.996509    -0.815705
 C     0.692016    -2.647751    -3.174245
 H    -0.170580    -2.564135    -3.840709
 C     3.077864    -2.948132    -2.863190
 C     4.464282    -3.100949    -3.419980
 H     4.960489    -2.119792    -3.508575
 H     5.093769    -3.718242    -2.763023
 H     4.452353    -3.556228    -4.420919
 C     1.968900    -2.816792    -3.707089
 H     2.107080    -2.859615    -4.791264
