  80
scf done:    -2716.994444
 C     0.009422    -3.426099    -1.427720
 H    -0.225170    -4.219175    -0.710437
 H    -0.692378    -3.378504    -2.265369
 C     1.378136    -3.041262    -1.629315
 H     2.159896    -3.562603    -1.066367
 H     1.703355    -2.707651    -2.619178
 H    -0.034784    -0.937883    -2.033027
Ir     0.338876    -1.493113    -0.531586
 O    -2.340585     0.408110    -1.025098
 C    -3.039494    -2.060460    -0.136997
 C    -2.087704    -0.039551     1.670752
 O     2.156038     0.924787     1.041300
 C     3.090862     0.508640    -1.490064
 C     0.738334     2.008941    -0.921471
 P     1.570389     0.446493    -0.477681
 P    -1.764972    -0.766696     0.028016
 C     0.794282    -2.222689     1.180217
 O     1.056869    -2.659437     2.210601
 C    -3.316355     1.307975    -0.690900
 C    -2.958663     2.495157    -0.048548
 H    -1.910578     2.672400     0.195256
 C    -4.651672     1.057655    -1.009101
 H    -4.920434     0.125197    -1.506495
 C    -3.933086     3.429994     0.281713
 H    -3.675999     4.362532     0.786873
 C    -5.631907     1.992388    -0.680529
 H    -6.683321     1.821260    -0.918276
 C    -5.260451     3.165469    -0.036025
 F    -6.198075     4.059160     0.283062
 C    -3.328324    -2.927366     0.923379
 C    -3.612969    -2.295949    -1.392289
 C    -4.784330    -4.216605    -0.511674
 C    -4.486372    -3.365156    -1.575394
 C    -4.199452    -3.998207     0.735149
 H    -2.869671    -2.765820     1.902432
 H    -4.423434    -4.666473     1.570081
 H    -5.468139    -5.056243    -0.656498
 H    -4.932932    -3.538525    -2.557537
 H    -3.361039    -1.638373    -2.227913
 C    -3.385221     0.074395     2.192052
 C    -1.013005     0.512726     2.377167
 C    -2.523710     1.284164     4.095429
 C    -1.231941     1.172237     3.585321
 C    -3.599863     0.732962     3.398558
 H    -4.232549    -0.345625     1.646046
 H    -4.614124     0.822191     3.794348
 H    -2.695089     1.802465     5.042151
 H    -0.385382     1.599137     4.127931
 H     0.000569     0.436823     1.976423
 C     3.441287     0.706420     1.455194
 C     4.439440     1.631920     1.142225
 H     4.184615     2.512390     0.550950
 C     3.749164    -0.426443     2.209341
 H     2.961281    -1.136975     2.459669
 C     5.746518     1.421045     1.568691
 H     6.543973     2.126775     1.330010
 C     5.056074    -0.640103     2.641659
 H     5.321297    -1.518211     3.233072
 C     6.039941     0.282852     2.310698
 F     7.292861     0.075831     2.717320
 C     3.898257    -0.634793    -1.512677
 C     3.504982     1.659260    -2.171066
 C     5.526673     0.529806    -2.859635
 C     4.716619     1.664764    -2.859051
 C     5.117107    -0.619723    -2.184381
 H     3.556194    -1.534871    -0.996471
 H     5.747263    -1.512004    -2.186547
 H     6.479460     0.539232    -3.394624
 H     5.031574     2.563134    -3.395387
 H     2.879051     2.554429    -2.162436
 C    -0.010988     2.063899    -2.103215
 C     0.854349     3.153322    -0.124438
 C    -0.488682     4.398506    -1.702337
 C     0.238980     4.343171    -0.515149
 C    -0.613520     3.255947    -2.493579
 H    -0.133017     1.162519    -2.707159
 H    -1.198227     3.289211    -3.415497
 H    -0.972280     5.329777    -2.006403
 H     0.330944     5.231673     0.114306
 H     1.426413     3.102668     0.803417
