  98
scf done:    -3151.093758
 C    -0.411356    -2.247193    -2.943532
 H    -0.759070    -3.269051    -2.757264
 H    -1.055673    -1.689972    -3.630918
 C     1.005944    -1.987961    -2.952901
 H     1.700617    -2.811827    -2.761571
 H     1.402253    -1.241874    -3.648923
 H    -0.123885     0.166285    -2.155449
Ir     0.132615    -1.126810    -1.185268
 O    -2.221816     1.077439    -0.675265
 C    -3.282086    -1.516285    -0.676808
 C    -1.948351    -0.348183     1.655673
 O     1.050387     1.246874     0.984637
 C     3.130612    -0.508464     0.636995
 C     2.413244     1.453049    -1.442096
 P     1.679682     0.257322    -0.225738
 P    -1.832805    -0.463624    -0.193532
 C     0.412461    -2.750059    -0.183204
 O     0.545041    -3.764312     0.336094
 C    -3.353142     1.838570    -0.619468
 C    -4.040134     2.100920     0.564724
 H    -3.705858     1.654993     1.500464
 C    -3.747453     2.425289    -1.833832
 C    -2.967944     2.133604    -3.078171
 H    -2.944375     1.052855    -3.292930
 H    -3.394211     2.654144    -3.946288
 H    -1.914775     2.434681    -2.965481
 C    -5.164694     2.922683     0.542557
 H    -5.711913     3.110224     1.469026
 C    -4.870588     3.254659    -1.824825
 H    -5.192125     3.713579    -2.763933
 C    -5.584819     3.500249    -0.652712
 H    -6.465706     4.145355    -0.672869
 H    -3.169440    -1.638867    -1.764378
 H    -3.031848    -2.496488    -0.237037
 C    -4.664487    -1.065114    -0.317333
 C    -5.214449    -1.290519     0.950416
 H    -4.660410    -1.871395     1.691048
 C    -5.436131    -0.361913    -1.252411
 H    -5.037836    -0.190316    -2.254890
 C    -6.469219    -0.793051     1.295417
 H    -6.900287    -0.962662     2.283579
 C    -6.690009     0.140438    -0.928217
 H    -7.282736     0.705508    -1.648752
 C    -7.186157    -0.069785     0.352451
 F    -8.380158     0.423358     0.678141
 H    -1.464780     0.612755     1.883825
 H    -3.005101    -0.286518     1.955046
 C    -1.235998    -1.463136     2.359607
 C    -1.822279    -2.722652     2.534116
 H    -2.839704    -2.905679     2.180815
 C     0.066937    -1.269701     2.837186
 H     0.532718    -0.290905     2.710327
 C    -1.133675    -3.764124     3.150097
 H    -1.582651    -4.750086     3.279589
 C     0.767553    -2.297630     3.459698
 H     1.778159    -2.150217     3.846226
 C     0.160477    -3.539272     3.599305
 F     0.833302    -4.530742     4.180241
 C     1.541459     2.398481     1.543272
 C     2.713950     2.403108     2.299662
 H     3.278020     1.479872     2.428257
 C     0.773979     3.565661     1.390746
 C    -0.501654     3.543638     0.607506
 H    -0.427832     2.913067    -0.288958
 H    -1.327155     3.118874     1.201292
 H    -0.802783     4.558119     0.312339
 C     3.163240     3.584889     2.881761
 H     4.090823     3.584220     3.458338
 C     1.242534     4.735122     1.997005
 H     0.659732     5.653147     1.880317
 C     2.427419     4.757418     2.729056
 H     2.773750     5.688573     3.182618
 H     3.918826     0.249634     0.766749
 H     2.748633    -0.759935     1.637040
 C     3.654426    -1.750514    -0.025030
 C     3.596354    -2.977206     0.645417
 H     3.159197    -3.023147     1.645541
 C     4.194411    -1.734845    -1.318020
 H     4.240629    -0.802573    -1.883630
 C     4.059849    -4.150864     0.057855
 H     4.004211    -5.108910     0.577128
 C     4.666151    -2.896068    -1.921498
 H     5.082544    -2.887200    -2.930127
 C     4.591688    -4.094906    -1.222920
 F     5.037911    -5.211195    -1.795910
 H     2.750207     0.791333    -2.256551
 H     1.536393     1.982640    -1.843586
 C     3.481743     2.415217    -1.016139
 C     3.170180     3.765560    -0.811321
 H     2.150666     4.112650    -0.989616
 C     4.807247     2.010286    -0.809872
 H     5.102412     0.976827    -1.003793
 C     4.124568     4.673382    -0.368979
 H     3.876525     5.720899    -0.192357
 C     5.777997     2.905292    -0.365314
 H     6.810327     2.592288    -0.199778
 C     5.419362     4.226625    -0.137275
 F     6.338408     5.087002     0.299591
