 116
scf done:    -3362.351494
 C     1.093269    -3.352260     0.499613
 H     1.612743    -3.831231    -0.335444
 H     1.652187    -3.413599     1.435398
 C    -0.342744    -3.348977     0.517796
 H    -0.891588    -3.826846    -0.300812
 H    -0.875766    -3.397264     1.472202
 H     0.408420    -1.187334     1.683608
Ir     0.354445    -1.377477     0.057488
 C     2.870257     0.381970     1.794665
 C     3.495633     0.331684    -0.970068
 C     1.348001     1.970796    -0.209744
 C    -2.007852     0.731542    -1.514892
 C    -3.202285    -1.275234     0.137869
 C    -1.863103     0.995208     1.480613
 P    -1.702891    -0.188925     0.071151
 P     2.007710     0.275916     0.146512
 C     0.418088    -1.608520    -1.827818
 O     0.490349    -1.731982    -2.975647
 H     2.073323     0.469799     2.541062
 H     3.468666     1.300886     1.804129
 C     3.720170    -0.825774     2.049955
 C     5.022906    -0.914497     1.541699
 H     5.429252    -0.083568     0.961258
 C     3.231660    -1.894375     2.810106
 H     2.215441    -1.835435     3.206411
 C     5.803935    -2.045329     1.769291
 H     6.816506    -2.094227     1.360604
 C     4.012129    -3.023531     3.046076
 H     3.608693    -3.847239     3.640484
 C     5.300322    -3.106777     2.519765
 H     5.912908    -3.993574     2.700471
 C     4.270818     1.507049    -1.060644
 O     3.996108     2.486563    -0.173609
 C     4.430947     3.793729    -0.415955
 H     3.923177     4.430337     0.320534
 H     5.522765     3.898847    -0.289200
 H     4.148408     4.131564    -1.427339
 C     3.878450    -0.757449    -1.781017
 O     3.228376    -1.911877    -1.599094
 C     3.508483    -3.008698    -2.417971
 H     2.833267    -3.811391    -2.097697
 H     4.551360    -3.350779    -2.299661
 H     3.314083    -2.785218    -3.481139
 C     4.910553    -0.629019    -2.723723
 H     5.182728    -1.468312    -3.361460
 C     5.299560     1.642526    -2.000515
 H     5.876511     2.564370    -2.064383
 C     5.598211     0.571571    -2.833083
 H     6.400999     0.667099    -3.568323
 C     1.148639     2.991513     0.734383
 O     1.377090     2.680843     2.024781
 C     1.462293     3.695850     2.981414
 H     1.728367     3.207949     3.927940
 H     2.243129     4.433384     2.722498
 H     0.500375     4.216005     3.116207
 C     1.047783     2.257359    -1.555752
 O     1.198873     1.233298    -2.415256
 C     0.980176     1.420674    -3.783665
 H     1.145215     0.443545    -4.252856
 H     1.683021     2.157890    -4.209053
 H    -0.054955     1.745478    -3.989564
 C     0.636378     3.533437    -1.960973
 H     0.423368     3.743774    -3.008119
 C     0.752640     4.276192     0.337584
 H     0.626569     5.066853     1.076344
 C     0.509848     4.535422    -1.006115
 H     0.201786     5.537321    -1.315211
 H    -1.449033     0.150642    -2.257596
 H    -1.500295     1.697638    -1.401810
 C    -3.421577     0.901125    -1.984617
 C    -4.464710     1.297096    -1.136762
 H    -4.263607     1.467139    -0.078191
 C    -3.728463     0.633045    -3.324405
 H    -2.929966     0.297549    -3.992826
 C    -5.762650     1.438234    -1.620928
 H    -6.561627     1.738813    -0.938085
 C    -5.025971     0.776040    -3.813149
 H    -5.237854     0.560887    -4.863761
 C    -6.050650     1.183457    -2.961495
 H    -7.071200     1.290347    -3.337230
 C    -4.233536    -1.224811     1.096522
 O    -4.260275    -0.160773     1.921110
 C    -5.056590    -0.175966     3.067057
 H    -4.780337     0.716328     3.644917
 H    -6.133699    -0.127965     2.826556
 H    -4.868477    -1.073810     3.681403
 C    -3.309714    -2.262280    -0.865148
 O    -2.411295    -2.187411    -1.864436
 C    -2.465183    -3.105529    -2.919437
 H    -1.641078    -2.845100    -3.593915
 H    -3.423312    -3.037232    -3.463146
 H    -2.321373    -4.141254    -2.565663
 C    -4.308377    -3.241597    -0.830880
 H    -4.361245    -4.009284    -1.600964
 C    -5.227027    -2.211463     1.148900
 H    -6.003151    -2.171724     1.912156
 C    -5.245560    -3.218265     0.193705
 H    -6.023952    -3.984039     0.230764
 C    -1.707106     0.439127     2.769189
 O    -1.710509    -0.901075     2.824205
 C    -1.216430    -1.558791     3.954339
 H    -1.139197    -2.620174     3.687628
 H    -0.215468    -1.187838     4.232003
 H    -1.894889    -1.454028     4.819838
 C    -2.042316     2.388273     1.400003
 O    -2.253937     2.924965     0.181411
 C    -2.762122     4.221507     0.062777
 H    -2.971649     4.371921    -1.003964
 H    -2.034865     4.982293     0.390993
 H    -3.698860     4.340358     0.634777
 C    -2.017805     3.189553     2.551660
 H    -2.164174     4.265916     2.470812
 C    -1.632211     1.235188     3.915760
 H    -1.493939     0.781817     4.896860
 C    -1.796565     2.610248     3.793732
 H    -1.764136     3.240558     4.686015
