 100
scf done:    -2904.728345
 C    -0.031214    -3.885244    -1.002144
 H    -0.463706    -4.599849    -0.294676
 H    -0.534020    -3.874114    -1.974134
 C     1.376064    -3.607336    -0.947298
 H     1.989487    -4.114572    -0.196180
 H     1.918383    -3.379812    -1.868904
 H     0.260876    -1.439277    -1.768806
Ir     0.277812    -1.901604    -0.196587
 C    -2.875147    -1.397814    -1.630547
 O    -2.841820    -1.210972     1.001552
 O    -1.707662     0.734997    -0.285464
 C     1.819016     0.626929     1.749065
 O     3.300035    -0.362725    -0.191711
 O     1.312316     1.115556    -0.944190
 P     1.674878    -0.125557     0.079486
 P    -1.770768    -0.921364    -0.242828
 C     0.436551    -2.520873     1.625479
 O     0.624651    -2.893153     2.693793
 H    -2.830598    -2.499000    -1.594049
 H    -2.313861    -1.101384    -2.530200
 C    -4.294364    -0.908374    -1.680704
 C    -4.691684     0.004454    -2.663736
 H    -3.958341     0.365467    -3.388515
 C    -5.252182    -1.364927    -0.766168
 H    -4.958778    -2.081206     0.002632
 C    -6.000240     0.476424    -2.714680
 H    -6.284531     1.198012    -3.484332
 C    -6.561385    -0.894075    -0.816127
 H    -7.293551    -1.256701    -0.090347
 C    -6.940316     0.032996    -1.786394
 H    -7.967736     0.403215    -1.822851
 C    -2.419291    -1.248184     2.302755
 C    -2.709123    -2.378273     3.064041
 H    -3.256079    -3.201489     2.600908
 C    -1.720933    -0.182361     2.870697
 H    -1.520299     0.706629     2.270198
 C    -2.281355    -2.444935     4.385482
 H    -2.504926    -3.339277     4.973417
 C    -1.290304    -0.270502     4.191892
 H    -0.733086     0.564298     4.626351
 C    -1.551661    -1.402617     4.970816
 C    -1.036253    -1.514938     6.375647
 H    -0.859078    -0.525914     6.821907
 H    -0.078928    -2.062187     6.396452
 H    -1.738446    -2.061586     7.022136
 C    -2.721136     1.603546    -0.608673
 C    -3.870902     1.711784     0.174847
 H    -3.996633     1.066363     1.044415
 C    -2.548954     2.420924    -1.722175
 H    -1.635858     2.322911    -2.312643
 C    -4.859966     2.614963    -0.193414
 H    -5.770486     2.676613     0.408592
 C    -3.546779     3.330071    -2.068252
 H    -3.409086     3.964558    -2.948191
 C    -4.723473     3.435288    -1.321451
 C    -5.826630     4.369905    -1.722539
 H    -5.510597     5.047640    -2.528022
 H    -6.165292     4.984519    -0.874213
 H    -6.703703     3.806827    -2.083217
 H     1.971641    -0.250670     2.399510
 H     0.800239     0.985004     1.960683
 C     2.838931     1.692271     2.032308
 C     2.429963     3.000052     2.314124
 H     1.364494     3.241448     2.310450
 C     4.209181     1.401915     2.046936
 H     4.542707     0.385572     1.832947
 C     3.362294     4.001117     2.571943
 H     3.019820     5.018267     2.776904
 C     5.142516     2.401890     2.305442
 H     6.207940     2.158618     2.305989
 C     4.724341     3.707053     2.563292
 H     5.458599     4.491291     2.762826
 C     3.764077    -1.126060    -1.230930
 C     4.706789    -2.112651    -0.948201
 H     5.025013    -2.258236     0.085729
 C     3.326658    -0.929878    -2.539584
 H     2.580649    -0.162678    -2.752192
 C     5.206095    -2.903696    -1.976648
 H     5.939192    -3.681127    -1.743746
 C     3.831699    -1.737445    -3.556415
 H     3.474612    -1.586481    -4.578823
 C     4.776615    -2.736082    -3.299777
 C     5.332156    -3.588163    -4.404082
 H     6.339118    -3.249957    -4.700714
 H     4.695461    -3.551498    -5.299392
 H     5.421917    -4.640197    -4.094019
 C     1.778523     2.405505    -0.857126
 C     3.128376     2.707697    -1.040421
 H     3.842656     1.905678    -1.227858
 C     0.855650     3.419269    -0.618936
 H    -0.194908     3.157207    -0.485500
 C     3.546709     4.028940    -0.943138
 H     4.609169     4.257600    -1.062445
 C     1.292690     4.739843    -0.538106
 H     0.563265     5.531333    -0.344619
 C     2.643347     5.068413    -0.684285
 C     3.127593     6.481334    -0.540489
 H     3.728771     6.597029     0.376915
 H     2.291172     7.192175    -0.483848
 H     3.768802     6.777703    -1.385037
