 108
scf done:    -2161.448055
 C     0.685652    -3.376998     1.414478
 H     1.542205    -3.933103     1.017615
 H     0.738032    -3.222569     2.497260
 C    -0.607533    -3.563043     0.803390
 H    -0.699830    -4.255241    -0.040422
 H    -1.494847    -3.548792     1.443953
 H    -0.614230    -1.166517     1.689991
Ir     0.162319    -1.612290     0.306568
 C     1.664627     0.519023     2.705974
 C     3.519151    -0.831580     1.063623
 C     2.063556     1.420172    -0.026567
 C    -0.824110     0.558904    -2.307672
 C    -2.956086    -1.155611    -1.312987
 C    -2.068041     1.091786     0.284530
 P    -1.428744    -0.277607    -0.769820
 P     1.822045    -0.111034     0.979600
 C     0.922039    -2.197959    -1.338899
 O     1.317601    -2.544185    -2.366295
 H     2.595787     1.042057     2.985119
 H     1.604974    -0.390911     3.324278
 C     0.454465     1.407193     2.936249
 H     0.521486     2.293859     2.280965
 H    -0.447571     0.856368     2.623051
 C     0.259761     1.892529     4.374823
 H     1.181090     2.422989     4.682759
 C    -0.895501     2.886537     4.431686
 H    -0.723453     3.744278     3.762108
 H    -1.043104     3.278340     5.449953
 H    -1.838152     2.406774     4.118796
 C     0.031700     0.739559     5.345799
 H    -0.131161     1.109847     6.369803
 H     0.886604     0.047935     5.378252
 H    -0.857110     0.155454     5.054001
 H     4.185875    -0.124661     1.587665
 H     3.418811    -1.718711     1.711371
 C     4.111315    -1.228725    -0.278727
 H     3.406621    -1.886047    -0.811699
 H     4.230862    -0.334355    -0.916227
 C     5.455368    -1.933216    -0.155864
 H     5.335640    -2.832372     0.475435
 H     6.167932    -1.281937     0.383167
 C     6.050656    -2.334521    -1.498257
 H     5.328612    -2.975588    -2.033909
 H     6.168521    -1.432667    -2.125188
 C     7.385142    -3.052238    -1.378019
 H     7.789070    -3.328380    -2.363837
 H     7.288632    -3.977632    -0.787572
 H     8.135777    -2.420354    -0.876071
 H     2.214682     1.067686    -1.061060
 H     1.084043     1.927706    -0.034900
 C     3.159309     2.391577     0.382081
 H     2.997307     2.725887     1.421701
 H     4.137005     1.879348     0.378454
 C     3.232214     3.611406    -0.527546
 H     2.252947     4.124832    -0.526587
 H     3.391932     3.278797    -1.569593
 C     4.321559     4.601373    -0.139947
 H     4.159217     4.926716     0.903038
 H     5.296969     4.083261    -0.141365
 C     4.385617     5.816221    -1.051358
 H     5.181524     6.512352    -0.746486
 H     3.434877     6.373323    -1.041723
 H     4.582480     5.522483    -2.095010
 H    -0.094014    -0.132542    -2.758095
 H    -0.231089     1.411008    -1.938268
 C    -1.821873     1.000028    -3.370565
 H    -2.300039     0.106948    -3.805291
 H    -2.639080     1.592397    -2.926105
 C    -1.194175     1.816290    -4.505807
 H    -0.344821     1.230640    -4.905503
 C    -2.199927     2.015540    -5.633917
 H    -2.565543     1.052459    -6.022754
 H    -1.758019     2.572492    -6.474601
 H    -3.075419     2.586206    -5.281017
 C    -0.653819     3.158392    -4.021951
 H    -0.212556     3.730695    -4.852419
 H     0.126207     3.045051    -3.253756
 H    -1.463238     3.771505    -3.589964
 H    -3.595899    -0.487264    -1.912768
 H    -2.606609    -1.958654    -1.984042
 C    -3.735061    -1.750551    -0.148948
 H    -3.030403    -2.279925     0.513028
 H    -4.175560    -0.938710     0.456980
 C    -4.839879    -2.700624    -0.587894
 H    -4.396134    -3.517933    -1.184999
 H    -5.535398    -2.175567    -1.268637
 C    -5.621807    -3.294951     0.575168
 H    -4.918738    -3.811640     1.252051
 H    -6.061386    -2.475724     1.171827
 C    -6.716232    -4.256259     0.140881
 H    -7.261924    -4.668918     1.003027
 H    -6.299785    -5.104700    -0.425700
 H    -7.451934    -3.757127    -0.510517
 H    -2.423877     0.588079     1.198586
 H    -1.174599     1.652499     0.601309
 C    -3.127520     2.044522    -0.245814
 H    -2.722871     2.627617    -1.089935
 H    -3.986822     1.480258    -0.648450
 C    -3.619250     3.006394     0.828678
 H    -2.755007     3.550341     1.252407
 H    -4.042272     2.425923     1.668902
 C    -4.653335     4.006710     0.332370
 H    -4.224527     4.583883    -0.506225
 H    -5.512188     3.457758    -0.093118
 C    -5.138468     4.958394     1.413851
 H    -5.882848     5.670346     1.026418
 H    -4.304546     5.543906     1.833510
 H    -5.605138     4.409974     2.247905
