 102
scf done:    -2531.163109
 C     0.420544     1.523551    -3.034238
 H     0.855999     2.525489    -3.114039
 H     0.961585     0.771338    -3.616072
 C    -1.006577     1.405360    -2.892386
 H    -1.611163     2.318687    -2.870097
 H    -1.512325     0.564794    -3.375766
 H    -0.017263    -0.635210    -1.668200
Ir    -0.054288     0.876277    -1.027184
 C     2.137099    -1.576410     0.378778
 O     3.319437     0.651980    -0.448930
 O     1.820874     0.877792     1.622598
 C    -2.403853     0.921715     1.716023
 O    -2.755686    -1.006975    -0.168523
 O    -0.789346    -1.255068     1.334478
 P    -1.523330    -0.104011     0.428086
 P     1.836272     0.230932     0.111833
 C    -0.037851     2.667284    -0.337432
 O     0.011831     3.736621     0.080012
 H     1.881172    -1.767443     1.430143
 H     1.346606    -2.057156    -0.213284
 C     3.489844    -2.121194     0.033670
 C     4.385757    -2.470395     1.047929
 H     4.081665    -2.345090     2.091346
 C     3.864745    -2.312385    -1.312433
 C     2.921444    -1.979334    -2.429612
 H     2.640068    -0.915120    -2.418538
 H     1.980189    -2.547913    -2.349486
 H     3.368820    -2.204420    -3.407297
 C     5.647817    -2.983836     0.758832
 H     6.329852    -3.249139     1.570043
 C     5.133566    -2.829911    -1.587218
 H     5.426468    -2.978658    -2.630334
 C     6.025595    -3.160151    -0.568710
 H     7.011732    -3.561211    -0.814721
 C     3.508976     1.873558    -1.145839
 H     4.447131     1.754862    -1.709895
 H     2.686685     2.002963    -1.870353
 C     3.577626     3.072650    -0.220725
 H     2.683672     3.074867     0.424787
 H     4.446732     2.967414     0.451807
 C     3.653259     4.389771    -0.978655
 H     2.795277     4.453652    -1.671157
 H     4.555816     4.399821    -1.615283
 C     3.651506     5.602167    -0.062141
 H     2.730582     5.634016     0.541522
 H     4.505018     5.579441     0.634418
 H     3.710723     6.541964    -0.631506
 C     2.890566     0.730029     2.544870
 H     3.495506    -0.159216     2.299817
 H     3.556389     1.604367     2.457848
 C     2.312398     0.625587     3.939284
 H     3.144093     0.616273     4.665231
 H     1.730716     1.541715     4.141643
 C     1.423416    -0.595405     4.126893
 H     2.030615    -1.509471     3.992602
 H     0.677862    -0.601379     3.315659
 C     0.726175    -0.638187     5.476130
 H     1.449576    -0.650312     6.307323
 H     0.080542     0.243826     5.616594
 H     0.091746    -1.532364     5.576830
 H    -2.260048     0.415629     2.682507
 H    -1.859331     1.874534     1.769418
 C    -3.867828     1.103881     1.439199
 C    -4.772282     0.159971     1.938809
 H    -4.394434    -0.660944     2.554218
 C    -4.350065     2.156610     0.634976
 C    -3.425426     3.179746     0.044089
 H    -2.723910     2.717525    -0.668676
 H    -2.813229     3.678312     0.811691
 H    -3.987794     3.956128    -0.491940
 C    -6.133363     0.235521     1.661866
 H    -6.816292    -0.516247     2.064188
 C    -5.723080     2.223544     0.371045
 H    -6.098333     3.042360    -0.248954
 C    -6.612909     1.276459     0.870395
 H    -7.678712     1.353680     0.642833
 C    -3.482089    -0.604851    -1.326835
 H    -4.542176    -0.531891    -1.032476
 H    -3.149167     0.394864    -1.647635
 C    -3.278349    -1.601053    -2.446661
 H    -3.781351    -1.209672    -3.348708
 H    -2.199887    -1.636646    -2.679522
 C    -3.789573    -2.998169    -2.129925
 H    -4.878742    -2.955024    -1.951902
 H    -3.341521    -3.326771    -1.178775
 C    -3.479784    -4.012957    -3.217459
 H    -3.926323    -3.720295    -4.181572
 H    -2.392928    -4.105819    -3.374230
 H    -3.864502    -5.012481    -2.962958
 C    -1.431260    -2.196111     2.182160
 H    -0.676782    -2.448784     2.944879
 H    -2.281693    -1.729503     2.709960
 C    -1.882599    -3.451766     1.459227
 H    -2.166428    -4.187391     2.232979
 H    -2.792384    -3.231002     0.881144
 C    -0.823445    -4.042963     0.540112
 H     0.123944    -4.162711     1.095437
 H    -0.613188    -3.313718    -0.259624
 C    -1.234082    -5.373068    -0.069635
 H    -1.414077    -6.134155     0.706748
 H    -2.161762    -5.275146    -0.655323
 H    -0.457373    -5.763708    -0.744249
