 102
scf done:    -2682.508108
 C     1.197739    -3.129565    -1.367732
 H     1.752636    -3.106092    -2.311238
 H     1.789546    -3.515455    -0.531271
 C    -0.214672    -3.403877    -1.379650
 H    -0.709294    -3.594036    -2.338663
 H    -0.640618    -3.978549    -0.551335
 H     0.162941    -1.866124     0.634361
Ir     0.118324    -1.325463    -0.914801
 C     2.061814     0.234566     1.633061
 C     3.418058     0.021565    -0.934119
 C     1.437056     2.021536    -0.596635
 C    -2.518141     1.071583    -1.190129
 C    -3.225913    -1.280868     0.346717
 C    -1.441443     0.620905     1.495408
 P    -1.779795    -0.243720    -0.084670
 P     1.743215     0.241977    -0.223805
 C    -0.077582    -0.831414    -2.749014
 O    -0.267630    -0.564488    -3.853536
 H     1.932013     1.262580     1.993480
 H     1.233037    -0.345869     2.052557
 C     3.398298    -0.300338     2.050630
 C     4.525852     0.523827     1.956793
 H     4.403461     1.553054     1.609288
 C     3.556612    -1.632887     2.480695
 C     2.381966    -2.559189     2.607955
 H     1.824443    -2.645566     1.662304
 H     1.661070    -2.195214     3.358674
 H     2.704308    -3.564073     2.913333
 C     5.799411     0.054203     2.257083
 H     6.663302     0.715553     2.159555
 C     4.844015    -2.089586     2.786681
 H     4.968961    -3.124227     3.118251
 C     5.960215    -1.265768     2.671329
 H     6.953655    -1.654979     2.907087
 C     4.000852    -1.251002    -0.856021
 H     3.422409    -2.081102    -0.450008
 C     4.167390     1.064678    -1.482225
 H     3.738784     2.065483    -1.563246
 C     5.306763    -1.459187    -1.275189
 H     5.745824    -2.456370    -1.182170
 C     5.472613     0.842875    -1.921329
 H     6.041355     1.673367    -2.349127
 C     6.070835    -0.414372    -1.813644
 C     7.483576    -0.652405    -2.258820
 H     7.944475     0.264947    -2.651023
 H     8.104660    -1.014090    -1.423733
 H     7.529174    -1.418574    -3.049207
 C     1.879481     3.076923     0.208440
 H     2.453595     2.880746     1.115720
 C     0.739305     2.344187    -1.766404
 H     0.401093     1.544795    -2.426237
 C     1.593721     4.399876    -0.120958
 H     1.944942     5.202168     0.534076
 C     0.462374     3.666460    -2.099439
 H    -0.088166     3.881987    -3.019495
 C     0.868954     4.721683    -1.273579
 C     0.525387     6.142158    -1.611056
 H     0.667274     6.345111    -2.683074
 H    -0.531036     6.356410    -1.379085
 H     1.140471     6.853334    -1.042061
 H    -1.789397     1.895593    -1.186949
 H    -2.472217     0.630411    -2.195249
 C    -3.897266     1.552757    -0.857979
 C    -4.075944     2.579931     0.077378
 H    -3.199007     3.048784     0.526702
 C    -5.033682     0.961234    -1.450875
 C    -4.908676    -0.123566    -2.480163
 H    -4.423755    -1.019400    -2.063953
 H    -4.306954     0.200806    -3.344650
 H    -5.896940    -0.422622    -2.854817
 C    -5.345369     3.004640     0.458470
 H    -5.454706     3.803126     1.196137
 C    -6.301736     1.404606    -1.060985
 H    -7.181556     0.943127    -1.517679
 C    -6.467513     2.407400    -0.109676
 H    -7.471645     2.727721     0.178533
 C    -3.342667    -2.554343    -0.214446
 H    -2.531625    -2.920403    -0.846625
 C    -4.260804    -0.807118     1.166092
 H    -4.194230     0.185710     1.615861
 C    -4.471903    -3.334292     0.026534
 H    -4.545734    -4.327272    -0.425498
 C    -5.383252    -1.591252     1.402768
 H    -6.184888    -1.199149     2.034907
 C    -5.511599    -2.867166     0.836460
 C    -6.720601    -3.710255     1.116677
 H    -7.644954    -3.115268     1.065123
 H    -6.807051    -4.542677     0.404253
 H    -6.671449    -4.143798     2.129403
 C    -1.426302    -0.127001     2.682661
 H    -1.734984    -1.175248     2.662813
 C    -1.024408     1.952588     1.551262
 H    -0.992218     2.564435     0.648709
 C    -1.009213     0.443729     3.878337
 H    -1.004473    -0.163208     4.788333
 C    -0.609050     2.520988     2.755294
 H    -0.283810     3.565040     2.765160
 C    -0.587764     1.780195     3.938914
 C    -0.112508     2.376915     5.230573
 H     0.831322     1.910111     5.556584
 H     0.063824     3.457457     5.135492
 H    -0.844745     2.220871     6.037899
