  96
scf done:    -3000.702514
 C     0.230685     3.138241    -2.742592
 H     0.883001     3.981729    -2.491511
 H     0.591446     2.554166    -3.595175
 C    -1.190464     3.277641    -2.546408
 H    -1.576910     4.222837    -2.150362
 H    -1.870934     2.798202    -3.257549
 H    -0.657735     0.795011    -2.221884
Ir    -0.384413     1.939739    -1.067974
 C     1.968552    -0.657034    -1.649239
 C     3.017417     1.907956    -0.541108
 C     1.537568    -0.007875     1.230600
 C    -2.997885     2.357554     1.142679
 C    -3.702734     0.719044    -1.214128
 C    -2.266607    -0.399422     1.085099
 P    -2.295802     1.079805    -0.027844
 P     1.552791     0.742405    -0.484317
 C    -0.014456     3.266415     0.250003
 O     0.259561     4.031631     1.067848
 H     1.402711    -0.406129    -2.557301
 H     1.502285    -1.551401    -1.212203
 C     3.404712    -0.917633    -1.986364
 C     4.158777    -1.877020    -1.300155
 H     3.693531    -2.456356    -0.502111
 C     4.020903    -0.206628    -3.026462
 H     3.437873     0.522939    -3.596444
 C     5.494754    -2.100022    -1.624966
 H     6.062698    -2.852428    -1.072583
 C     5.358417    -0.425391    -3.351412
 H     5.818986     0.141191    -4.164216
 C     6.103399    -1.370471    -2.645856
 H     7.151669    -1.544914    -2.899282
 H     3.388771     1.850524    -1.574459
 H     2.561233     2.901207    -0.436031
 C     4.136547     1.761949     0.442773
 C     4.036305     2.365067     1.704783
 H     3.144191     2.948058     1.952262
 C     5.308370     1.059720     0.135362
 H     5.420604     0.596746    -0.845563
 C     5.056876     2.251048     2.646268
 H     4.985569     2.719227     3.629564
 C     6.339036     0.938900     1.062899
 H     7.252599     0.390033     0.827646
 C     6.197983     1.530937     2.312204
 F     7.180726     1.415933     3.204958
 H     1.807566     0.818010     1.906775
 H     0.470260    -0.208358     1.390795
 C     2.326578    -1.246032     1.535216
 C     1.755016    -2.508449     1.318946
 H     0.731494    -2.581703     0.944997
 C     3.624858    -1.190746     2.056584
 H     4.083422    -0.224313     2.263032
 C     2.464208    -3.679829     1.574704
 H     2.021246    -4.662372     1.402468
 C     4.346757    -2.350759     2.320703
 H     5.360356    -2.308415     2.723339
 C     3.760165    -3.584831     2.067002
 F     4.449149    -4.698750     2.313518
 H    -2.983743     3.289540     0.558385
 H    -2.231096     2.468697     1.925732
 C    -4.349377     2.110496     1.730945
 C    -4.510215     1.343848     2.893884
 H    -3.626766     0.967717     3.416063
 C    -5.499023     2.622087     1.112636
 H    -5.394941     3.252816     0.225430
 C    -5.778328     1.061914     3.396697
 H    -5.880316     0.458915     4.302141
 C    -6.768856     2.344951     1.614768
 H    -7.650434     2.751082     1.113453
 C    -6.913994     1.553270     2.753103
 H    -7.908650     1.331552     3.146246
 H    -4.402920     1.562264    -1.115501
 H    -3.252423     0.790808    -2.212723
 C    -4.412289    -0.592580    -1.046104
 C    -4.111471    -1.664806    -1.895742
 H    -3.396537    -1.517682    -2.708503
 C    -5.341014    -0.806298    -0.019453
 H    -5.615152     0.013823     0.645990
 C    -4.682964    -2.920052    -1.715106
 H    -4.438364    -3.760203    -2.367055
 C    -5.921483    -2.056552     0.178380
 H    -6.640850    -2.228587     0.981016
 C    -5.574175    -3.103301    -0.665961
 F    -6.113787    -4.306687    -0.470043
 H    -1.547755    -0.134368     1.881594
 H    -3.250112    -0.482065     1.571845
 C    -1.916677    -1.733705     0.479704
 C    -2.342175    -2.901067     1.127043
 H    -2.928428    -2.822488     2.046154
 C    -1.190814    -1.868366    -0.708179
 H    -0.868816    -0.971501    -1.242248
 C    -2.047901    -4.162222     0.618012
 H    -2.384401    -5.073160     1.116004
 C    -0.888936    -3.122569    -1.234842
 H    -0.327283    -3.229570    -2.164946
 C    -1.320671    -4.257376    -0.562757
 F    -1.038391    -5.461298    -1.058945
