 102
scf done:    -2682.500866
 C    -0.425713     1.000848    -3.786647
 H    -0.803359     0.273424    -4.513545
 H    -1.070513     1.879420    -3.682944
 C     1.001493     1.166092    -3.649004
 H     1.666153     0.561848    -4.275691
 H     1.396203     2.168273    -3.448398
 H    -0.031279     1.702808    -1.374172
Ir     0.216097     0.173882    -1.913057
 C    -1.652594     0.711280     0.996220
 C    -3.230393     0.243436    -1.531989
 C    -1.921415    -2.036542    -0.127464
 C     2.075718    -1.647292     0.427383
 C     3.602946     0.378803    -1.158169
 C     1.928585     1.096392     1.161485
 P     1.949839     0.041218    -0.359121
 P    -1.675195    -0.241193    -0.611113
 C     0.468109    -1.597795    -2.580261
 O     0.624750    -2.682049    -2.940291
 H    -1.277678     0.001284     1.748180
 H    -0.869188     1.462276     0.834693
 C    -2.907696     1.364711     1.486664
 C    -3.713327     0.725281     2.435158
 H    -3.415445    -0.254410     2.811970
 C    -3.272817     2.644708     1.014824
 C    -2.386690     3.417884     0.080161
 H    -2.041025     2.826735    -0.780998
 H    -1.472888     3.754912     0.596856
 H    -2.900257     4.310595    -0.302353
 C    -4.888181     1.311020     2.897103
 H    -5.502989     0.787289     3.632715
 C    -4.464337     3.212684     1.481619
 H    -4.756848     4.199493     1.112207
 C    -5.273198     2.557297     2.408445
 H    -6.197706     3.026614     2.753429
 H    -2.925116     0.126545    -2.581360
 H    -3.344547     1.322763    -1.360426
 C    -4.518750    -0.476551    -1.283357
 C    -5.464129     0.001651    -0.368123
 H    -5.266698     0.926131     0.175920
 C    -4.814317    -1.648986    -1.993969
 H    -4.104766    -2.016802    -2.741058
 C    -6.651166    -0.691008    -0.143758
 H    -7.369903    -0.301192     0.581115
 C    -6.001885    -2.343910    -1.771477
 H    -6.210480    -3.256796    -2.334537
 C    -6.922700    -1.870749    -0.836769
 H    -7.854169    -2.413445    -0.659111
 H    -0.908828    -2.461400    -0.171500
 H    -2.488165    -2.488293    -0.955241
 C    -2.547002    -2.355896     1.196138
 C    -3.921618    -2.584292     1.332322
 H    -4.564522    -2.548727     0.452908
 C    -1.746365    -2.437108     2.345200
 H    -0.664197    -2.302746     2.256112
 C    -4.479292    -2.854670     2.579575
 H    -5.555816    -3.024017     2.658152
 C    -2.301798    -2.702710     3.595199
 H    -1.656638    -2.758501     4.475222
 C    -3.675919    -2.905710     3.718193
 H    -4.116018    -3.114034     4.696165
 H     1.247339    -1.641266     1.155103
 H     1.767189    -2.339373    -0.365344
 C     3.342358    -2.118269     1.077734
 C     3.721383    -1.628801     2.333397
 H     3.081943    -0.900374     2.837133
 C     4.150739    -3.087365     0.447225
 C     3.793196    -3.659576    -0.895808
 H     3.693681    -2.880773    -1.668796
 H     2.832065    -4.198245    -0.873820
 H     4.560753    -4.368129    -1.235603
 C     4.889627    -2.053346     2.956947
 H     5.168641    -1.644572     3.930555
 C     5.313145    -3.517473     1.096259
 H     5.938712    -4.271425     0.610215
 C     5.691829    -3.005369     2.333816
 H     6.609893    -3.353972     2.812518
 H     3.403548     1.251789    -1.798675
 H     3.741708    -0.462993    -1.854403
 C     4.823881     0.596906    -0.313987
 C     5.830326    -0.372251    -0.241997
 H     5.728689    -1.293250    -0.818279
 C     4.999654     1.786425     0.407717
 H     4.251102     2.579690     0.338685
 C     6.954706    -0.183512     0.556462
 H     7.718691    -0.962853     0.603483
 C     6.123616     1.978637     1.207991
 H     6.236045     2.912729     1.763857
 C     7.102265     0.989862     1.293485
 H     7.982455     1.138534     1.923450
 H     2.927456     1.015983     1.625200
 H     1.230537     0.591693     1.847379
 C     1.541310     2.545620     1.052316
 C     0.993198     3.179885     2.175823
 H     0.819686     2.598820     3.086009
 C     1.734476     3.307707    -0.105856
 H     2.119894     2.835970    -1.010612
 C     0.664164     4.532726     2.151770
 H     0.235152     5.001784     3.040365
 C     1.406784     4.662516    -0.133867
 H     1.562533     5.233769    -1.051942
 C     0.874108     5.281963     0.994320
 H     0.613926     6.342639     0.969731
