  92
scf done:    -2600.095683
 C    -0.742171    -3.456211    -1.974055
 H    -1.483147    -4.080436    -1.462113
 H    -1.009615    -3.235856    -3.011291
 C     0.646099    -3.604809    -1.622884
 H     0.917030    -4.329067    -0.847642
 H     1.408975    -3.493439    -2.398704
 H     0.373688    -1.179300    -2.363053
Ir    -0.077969    -1.717791    -0.884903
 C    -1.398758     1.235120    -2.298527
 O    -3.225349    -0.120499    -1.053808
 O    -1.386952     0.867894     0.482023
 C     1.609112     0.003035     1.650840
 O     3.169360    -0.784434    -0.541528
 O     1.475347     1.092289    -0.900662
 P     1.613416    -0.376594    -0.141721
 P    -1.573988     0.018277    -0.947659
 C    -0.545177    -2.433113     0.840337
 O    -0.782461    -2.851825     1.882548
 H    -0.544054     1.858996    -1.990104
 H    -1.023753     0.639819    -3.146293
 C    -2.612659     2.056970    -2.713335
 H    -3.092529     2.509171    -1.832881
 H    -3.367933     1.381247    -3.142009
 C    -2.241690     3.139326    -3.714810
 H    -1.523173     3.855682    -3.283656
 H    -1.773861     2.710619    -4.615534
 H    -3.127305     3.707768    -4.036952
 C    -4.050708    -0.854213    -0.240409
 C    -3.797975    -2.194373     0.042811
 H    -2.928276    -2.672666    -0.408022
 C    -5.188207    -0.197300     0.258085
 C    -5.479076     1.222199    -0.120967
 H    -4.681557     1.902410     0.213550
 H    -5.551834     1.330311    -1.214062
 H    -6.424369     1.558741     0.325502
 C    -4.654307    -2.891901     0.892627
 H    -4.446598    -3.938676     1.125491
 C    -6.031951    -0.926063     1.100676
 H    -6.919205    -0.431297     1.505203
 C    -5.768222    -2.254641     1.432601
 H    -6.442687    -2.794304     2.101040
 C    -2.114409     1.880869     1.041613
 C    -2.103018     3.164363     0.496935
 H    -1.515475     3.359192    -0.400924
 C    -2.786129     1.600819     2.244323
 C    -2.708775     0.237475     2.858644
 H    -3.163184    -0.528005     2.211938
 H    -1.662544    -0.066302     3.016060
 H    -3.227017     0.215325     3.826392
 C    -2.826757     4.184478     1.111734
 H    -2.825157     5.186785     0.677512
 C    -3.500609     2.644345     2.839750
 H    -4.038968     2.444281     3.770044
 C    -3.538133     3.920816     2.279664
 H    -4.110288     4.713517     2.766561
 H     0.635516     0.520841     1.723671
 H     1.436679    -0.975034     2.130466
 C     2.699333     0.770234     2.399688
 H     3.115653     1.574426     1.778098
 H     3.539198     0.095961     2.619748
 C     2.156285     1.357133     3.693909
 H     1.354754     2.087695     3.496307
 H     1.733276     0.573864     4.343572
 H     2.946649     1.871041     4.261446
 C     4.260899    -0.906356     0.280701
 C     5.197352     0.125154     0.317799
 H     5.017045     1.024386    -0.274126
 C     4.432734    -2.085600     1.020522
 C     3.427628    -3.193739     0.939371
 H     2.547232    -2.995983     1.573496
 H     3.049828    -3.313053    -0.085649
 H     3.863716    -4.144220     1.275659
 C     6.320763     0.007790     1.130216
 H     7.049996     0.820193     1.167224
 C     5.570660    -2.174723     1.830076
 H     5.725260    -3.083987     2.417467
 C     6.504769    -1.142941     1.895334
 H     7.382574    -1.242770     2.537594
 C     2.225731     2.228703    -0.756991
 C     1.887728     3.150115     0.232794
 H     1.049285     2.927282     0.895903
 C     3.246101     2.485540    -1.686690
 C     3.506772     1.532462    -2.812884
 H     4.312463     1.901529    -3.461600
 H     3.774431     0.531908    -2.443910
 H     2.599018     1.401181    -3.423006
 C     2.615718     4.330734     0.357090
 H     2.356631     5.048495     1.138610
 C     3.963246     3.677449    -1.534669
 H     4.767545     3.897417    -2.242059
 C     3.666536     4.587924    -0.521064
 H     4.246271     5.509147    -0.430419
