  88
scf done:    -2299.289363
 C     0.175572    -1.418602    -1.874121
 H     1.081332    -2.037237    -1.880417
 H    -0.717976    -1.987146    -2.160464
 C     0.281726    -0.032783    -2.271183
 H     1.256247     0.360766    -2.571792
 H    -0.525631     0.414781    -2.857961
 H    -0.010458     1.494469     0.178098
Ir    -0.046379    -0.127951    -0.140783
 C    -2.908616     1.012386    -1.938131
 C    -3.428808    -1.252881    -0.220524
 C    -2.914038     1.290012     1.032469
 C     2.453753     0.763230     1.975896
 C     3.193337    -1.556111     0.425024
 C     3.135654     1.004264    -0.979493
 P     2.249740     0.031705     0.293684
 P    -2.342194     0.233485    -0.361485
 C    -0.349777    -0.868489     1.571034
 O    -0.543628    -1.276663     2.636854
 H    -3.807199     1.617627    -1.746166
 H    -2.106904     1.704338    -2.233342
 C    -3.165737     0.004132    -3.054314
 H    -4.024822    -0.632334    -2.790637
 H    -2.308738    -0.682744    -3.141134
 C    -3.414477     0.687288    -4.389571
 H    -4.276036     1.372547    -4.335404
 H    -2.539907     1.279116    -4.703601
 H    -3.621254    -0.047676    -5.181922
 C    -2.783295    -2.487131    -0.089550
 H    -1.689704    -2.495214    -0.080109
 C    -4.843573    -1.203091    -0.240694
 C    -5.633593     0.063186    -0.414431
 H    -5.196521     0.908867     0.132944
 H    -6.664097    -0.074898    -0.059281
 H    -5.692800     0.347929    -1.477896
 C    -3.502845    -3.673812     0.027149
 H    -2.974027    -4.624025     0.129416
 C    -5.544351    -2.407600    -0.112288
 H    -6.637542    -2.378705    -0.114886
 C    -4.892302    -3.631652     0.018627
 H    -5.475837    -4.550425     0.116750
 C    -3.395537     0.625575     2.169741
 H    -3.477732    -0.463126     2.162015
 C    -2.775065     2.695071     1.055009
 C    -2.201239     3.482461    -0.086321
 H    -2.913210     3.583874    -0.919390
 H    -1.291397     2.996718    -0.474314
 H    -1.935012     4.496317     0.242897
 C    -3.769919     1.325187     3.311770
 H    -4.139699     0.781893     4.184164
 C    -3.166553     3.376700     2.213764
 H    -3.064031     4.465227     2.236002
 C    -3.663753     2.712438     3.330840
 H    -3.955883     3.279055     4.218215
 H     1.780151     1.631374     1.998251
 H     1.969222     0.008026     2.617540
 C     3.827036     1.104215     2.528972
 H     4.359150     1.782891     1.841431
 H     4.437429     0.190485     2.594314
 C     3.728309     1.748994     3.904031
 H     3.154773     2.688924     3.864226
 H     3.218416     1.083988     4.618849
 H     4.723894     1.980232     4.312040
 C     2.390554    -2.699565     0.558494
 H     1.306899    -2.575708     0.483113
 C     4.601311    -1.692069     0.480313
 C     5.597020    -0.578982     0.295013
 H     5.159113     0.419726     0.358080
 H     6.068339    -0.653299    -0.698228
 H     6.399372    -0.656609     1.044201
 C     2.939240    -3.960232     0.762948
 H     2.285130    -4.828977     0.864925
 C     5.129120    -2.975175     0.685517
 H     6.216323    -3.086684     0.732239
 C     4.322229    -4.097826     0.829767
 H     4.776439    -5.078809     0.989967
 C     3.701753     0.266821    -2.031176
 H     3.673064    -0.824971    -1.993497
 C     3.124837     2.414323    -1.050127
 C     2.452188     3.282511    -0.029203
 H     2.989707     3.287188     0.931241
 H     1.425760     2.927163     0.161233
 H     2.399825     4.321344    -0.382150
 C     4.296718     0.893487    -3.119960
 H     4.728746     0.293939    -3.924270
 C     3.741677     3.022496    -2.151266
 H     3.744255     4.114511    -2.206766
 C     4.328692     2.284062    -3.173688
 H     4.796343     2.795921    -4.018068
