 104
scf done:    -3751.837628
 C    -1.256863    -2.717778    -3.437562
 H    -1.451413    -3.757497    -3.154030
 H    -2.111987    -2.236039    -3.921941
 C     0.075071    -2.347175    -3.851996
 H     0.853142    -3.117950    -3.875448
 H     0.194395    -1.593026    -4.635828
 H    -0.948336    -0.254295    -2.781511
Ir    -0.335874    -1.507200    -1.915372
 O    -2.077409     0.808154    -0.403291
 C    -3.650199    -1.459836    -0.815507
 C    -1.689140    -1.197505     1.390058
 O     1.526556    -0.131521     0.437638
 C     2.939206    -0.300614    -2.012634
 C     0.907011     1.778175    -1.445971
 P     1.277248    -0.027690    -1.225839
 P    -1.942602    -0.867683    -0.411064
 C     0.493502    -3.015325    -1.055886
 O     1.080401    -3.903648    -0.624687
 C    -3.066213     1.630059     0.046291
 C    -3.637873     2.507838    -0.877196
 H    -3.301853     2.464880    -1.914770
 C    -3.457017     1.681835     1.386103
 H    -2.996396     1.022170     2.119718
 C    -4.621990     3.405302    -0.478284
 H    -5.077785     4.089229    -1.195949
 C    -4.452137     2.566775     1.786484
 H    -4.779891     2.595508     2.826420
 C    -5.033009     3.421586     0.852992
Cl    -6.284299     4.514225     1.355107
 H    -3.781854    -1.165582    -1.867984
 H    -3.527361    -2.555406    -0.830750
 C    -4.819694    -1.033786     0.021845
 C    -5.050605    -1.568642     1.294337
 H    -4.402969    -2.355680     1.687980
 C    -5.713988    -0.074009    -0.468449
 H    -5.555229     0.331352    -1.471316
 C    -6.118379    -1.109900     2.064871
 H    -6.286621    -1.530263     3.059490
 C    -6.792190     0.392236     0.284688
 C    -7.735835     1.420946    -0.264967
 H    -7.448354     1.726720    -1.280457
 H    -8.765926     1.032557    -0.305558
 H    -7.749860     2.323518     0.365329
 C    -6.974526    -0.130883     1.572111
 H    -7.807518     0.224279     2.185078
 H    -0.978549    -0.412777     1.690043
 H    -2.636382    -1.028486     1.925544
 C    -1.114403    -2.544852     1.712184
 C    -1.781656    -3.731382     1.389163
 H    -2.748325    -3.702265     0.881901
 C     0.124373    -2.629362     2.358383
 H     0.653794    -1.705887     2.606523
 C    -1.215116    -4.964061     1.705811
 H    -1.741279    -5.884967     1.443481
 C     0.703922    -3.856339     2.689041
 C     2.036375    -3.924943     3.376121
 H     2.396507    -2.928008     3.663782
 H     1.986292    -4.549197     4.281796
 H     2.795546    -4.374756     2.715711
 C     0.015818    -5.027542     2.349546
 H     0.453594    -5.999912     2.591459
 C     2.693651    -0.292316     1.113712
 C     3.194444     0.760131     1.883473
 H     2.651506     1.704420     1.913685
 C     3.360793    -1.520492     1.088661
 H     2.929936    -2.357122     0.534907
 C     4.388446     0.604665     2.578143
 H     4.797498     1.428078     3.165686
 C     4.563842    -1.674607     1.773771
 H     5.102587    -2.622923     1.744989
 C     5.080575    -0.604175     2.501548
Cl     6.604963    -0.771687     3.312160
 H     3.324859    -1.231513    -1.569351
 H     2.636388    -0.563813    -3.038334
 C     3.976947     0.780894    -2.031593
 C     4.010544     1.698712    -3.088784
 H     3.294419     1.606844    -3.910220
 C     4.937717     0.893755    -1.020347
 H     4.949910     0.163361    -0.210762
 C     4.962138     2.716705    -3.108832
 H     4.982533     3.424570    -3.940962
 C     5.891808     1.913774    -1.017010
 C     6.875737     2.035952     0.109792
 H     6.943773     1.107619     0.693631
 H     7.881107     2.291725    -0.256773
 H     6.569529     2.835576     0.804929
 C     5.889916     2.830750    -2.076687
 H     6.633949     3.632010    -2.099568
 H     1.384729     2.077912    -2.390991
 H    -0.180826     1.800903    -1.593269
 C     1.300064     2.680031    -0.314034
 C     0.445700     2.812865     0.787170
 H    -0.498897     2.267193     0.797525
 C     2.506455     3.388440    -0.318641
 H     3.180216     3.292999    -1.172180
 C     0.801180     3.630862     1.856547
 H     0.126135     3.729358     2.710299
 C     2.879118     4.211719     0.748694
 C     4.176860     4.966513     0.719182
 H     4.762187     4.791389     1.635599
 H     4.790247     4.666679    -0.141472
 H     4.004164     6.052891     0.650899
 C     2.011099     4.321977     1.842276
 H     2.284727     4.959773     2.687684
