  62
scf done:    -1759.010166
 C    -1.179549    -3.163545    -0.636372
 H    -1.604186    -3.606181     0.271090
 H    -1.896746    -3.099148    -1.460911
 C     0.209226    -3.403458    -0.939946
 H     0.800610    -4.019020    -0.253785
 H     0.509945    -3.513797    -1.986433
 H    -0.374845    -1.085185    -1.924352
Ir    -0.054166    -1.356995    -0.327083
 C    -3.310644    -0.174405    -0.500350
 C    -1.751243     1.091231     1.628401
 C    -1.351112     1.874971    -1.053760
 C     2.457168     0.996773     0.525221
 C     3.415269    -1.409600    -0.822614
 C     2.124944     0.601893    -2.328077
 P     1.969133    -0.289347    -0.737684
 P    -1.586567     0.362170    -0.045291
 C     0.290977    -1.660002     1.522857
 O     0.503985    -1.786539     2.648900
 H    -3.227148    -0.433532    -1.567825
 H    -3.459686    -1.125340     0.029550
 C    -4.416530     0.805652    -0.257588
 C    -4.686479     1.795409    -1.212121
 H    -4.114702     1.798645    -2.143968
 C    -5.190037     0.768121     0.923298
 C    -5.009939    -0.316117     1.947610
 H    -3.989546    -0.343198     2.356183
 H    -5.205252    -1.311142     1.515444
 H    -5.702274    -0.178288     2.789276
 C    -5.670452     2.758581    -1.008505
 H    -5.859586     3.517410    -1.771433
 C    -6.174077     1.744871     1.113673
 H    -6.773576     1.715204     2.027814
 C    -6.413722     2.739047     0.168492
 H    -7.189477     3.487402     0.346620
 H    -1.859077     0.290298     2.372638
 H    -0.819765     1.631219     1.854393
 H    -2.601768     1.786787     1.698476
 H    -0.380685     2.318447    -0.786422
 H    -1.320502     1.596950    -2.116929
 H    -2.144009     2.618280    -0.883758
 H     1.696319     1.786313     0.413706
 H     2.272541     0.528254     1.502484
 C     3.838405     1.565479     0.419892
 C     4.088081     2.615905    -0.472919
 H     3.253627     3.036005    -1.040942
 C     4.906021     1.052729     1.188550
 C     4.690144    -0.020273     2.217673
 H     4.264058    -0.937135     1.785417
 H     3.993379     0.311942     3.004642
 H     5.636292    -0.290573     2.705841
 C     5.365506     3.142137    -0.642088
 H     5.531016     3.961927    -1.345016
 C     6.184278     1.591786     1.005009
 H     7.011710     1.195534     1.600129
 C     6.423659     2.619721     0.096483
 H     7.433450     3.018930    -0.023760
 H     3.432750    -2.051821     0.068274
 H     3.269982    -2.062842    -1.695212
 H     4.367400    -0.865071    -0.919257
 H     1.900799    -0.114813    -3.130624
 H     1.377492     1.405984    -2.376501
 H     3.132541     1.018735    -2.472968
