  96
scf done:    -2004.322947
 C     0.744931    -3.259623     0.345148
 H     1.650388    -3.611860    -0.161602
 H     0.768811    -3.424141     1.427146
 C    -0.517887    -3.356217    -0.345108
 H    -0.534888    -3.771713    -1.358301
 H    -1.414925    -3.604302     0.231175
 H    -0.720470    -1.325926     1.222393
Ir     0.084202    -1.291911    -0.215768
 C     1.079750     1.006718     2.380958
 C     3.183869    -0.594396     1.287436
 C     2.101245     1.603966    -0.245543
 C    -1.412326     0.909896    -2.488815
 C    -3.304396    -0.737385    -1.053024
 C    -2.041489     1.470652     0.337843
 P    -1.676182     0.099905    -0.849612
 P     1.578955     0.179524     0.809624
 C     0.961347    -1.283578    -1.906443
 O     1.477553    -1.247276    -2.937111
 H     1.905143     1.660326     2.711866
 H     0.234166     1.666659     2.125110
 C     0.678579     0.054514     3.499353
 H     1.545902    -0.564004     3.786256
 H    -0.076648    -0.648097     3.111007
 C     0.144385     0.781389     4.723634
 H     0.890229     1.477654     5.140175
 H    -0.753150     1.371135     4.475605
 H    -0.133979     0.075096     5.520413
 H     2.923165    -1.421756     1.968075
 H     3.774842     0.133808     1.867696
 C     3.961274    -1.135189     0.097281
 H     3.285339    -1.773763    -0.494213
 H     4.259822    -0.305616    -0.570299
 C     5.210990    -1.940676     0.459142
 H     4.890244    -2.760220     1.129718
 C     5.811881    -2.568429    -0.793096
 H     5.078625    -3.201797    -1.315852
 H     6.687232    -3.191288    -0.551837
 H     6.142183    -1.789865    -1.501182
 C     6.247907    -1.103710     1.200189
 H     7.144066    -1.698016     1.437068
 H     5.858513    -0.703805     2.148595
 H     6.571140    -0.247871     0.582848
 H     1.180272     2.183099    -0.434394
 H     2.365758     1.150271    -1.213913
 C     3.212956     2.511539     0.258188
 H     2.922221     2.951944     1.226725
 H     4.123185     1.917419     0.455778
 C     3.581323     3.649831    -0.699558
 H     2.655308     4.217743    -0.911666
 C     4.572016     4.599641    -0.036117
 H     4.171130     5.009955     0.903980
 H     4.821010     5.446291    -0.694401
 H     5.513450     4.077328     0.203360
 C     4.130572     3.133559    -2.025240
 H     4.402979     3.966025    -2.692102
 H     3.405231     2.505687    -2.563722
 H     5.038520     2.528565    -1.861241
 H    -0.411158     1.369361    -2.424616
 H    -1.292030     0.063488    -3.187647
 C    -2.417436     1.910731    -3.043015
 H    -2.445207     2.804224    -2.398331
 H    -3.434055     1.483762    -3.017791
 C    -2.080401     2.331186    -4.466474
 H    -1.078150     2.785579    -4.520133
 H    -2.084366     1.466008    -5.148340
 H    -2.802451     3.066343    -4.853307
 H    -3.155697    -1.470100    -1.864346
 H    -4.052918    -0.007768    -1.401967
 C    -3.764125    -1.450129     0.210868
 H    -2.941242    -2.092889     0.559592
 H    -3.931746    -0.715555     1.020142
 C    -5.031636    -2.290876     0.045806
 H    -4.846189    -3.006964    -0.777130
 C    -5.296894    -3.094888     1.313331
 H    -4.438351    -3.735050     1.568681
 H    -6.181393    -3.741563     1.203830
 H    -5.478643    -2.424929     2.170612
 C    -6.246400    -1.448232    -0.328081
 H    -7.148400    -2.071605    -0.429553
 H    -6.106208    -0.916039    -1.281097
 H    -6.451109    -0.692995     0.450187
 H    -1.233055     2.209620     0.192625
 H    -1.859538     1.018472     1.324336
 C    -3.403733     2.150590     0.306931
 H    -3.629364     2.511110    -0.707810
 H    -4.190772     1.414141     0.544941
 C    -3.536279     3.328416     1.278219
 H    -2.746436     4.060273     1.021409
 C    -4.885828     4.012996     1.093863
 H    -5.028963     4.349341     0.055026
 H    -4.985253     4.891684     1.749716
 H    -5.710654     3.322147     1.336224
 C    -3.333627     2.911290     2.730915
 H    -3.462129     3.767774     3.410447
 H    -2.329998     2.497770     2.910780
 H    -4.068331     2.141767     3.022519
