  60
scf done:    -1532.934692
 C     1.434592     1.232326    -2.449509
 H     1.902598     2.211125    -2.296955
 H     2.130145     0.480953    -2.836897
 C     0.054229     1.180867    -2.862770
 H    -0.489072     2.121094    -3.005174
 H    -0.255704     0.399826    -3.563856
 H     0.455790    -0.957771    -1.491432
Ir     0.225277     0.528901    -0.816074
 C     2.189880    -1.914242     0.939983
 C     3.411520     0.659744     0.667674
 C     1.256697     0.271134     2.566286
 C    -2.684381     0.617781     1.128633
 C    -3.040780    -0.678271    -1.426998
 C    -1.613083    -2.095876     0.672057
 P    -1.781867    -0.421628    -0.103686
 P     1.748619    -0.127207     0.826263
 C    -0.105498     2.256690    -0.084841
 O    -0.333321     3.289043     0.375436
 H     2.886052    -2.056783     1.784467
 H     1.256967    -2.440966     1.201615
 C     2.778631    -2.502279    -0.335537
 H     3.747664    -2.021335    -0.551188
 H     2.117610    -2.246055    -1.179625
 C     2.966440    -4.009057    -0.252580
 H     3.636012    -4.289760     0.576637
 H     2.004323    -4.520273    -0.086021
 H     3.399338    -4.411350    -1.181064
 H     3.774740     0.368699    -0.330795
 C     3.381289     2.174146     0.788245
 H     3.043878     2.503227     1.783644
 H     2.698308     2.608898     0.043900
 H     4.097871     0.210214     1.405918
 H     4.381517     2.602029     0.621517
 H     0.338550    -0.314084     2.744380
 C     2.272525     0.044018     3.674190
 H     3.172692     0.661523     3.534888
 H     2.594894    -1.006531     3.732799
 H     0.930268     1.323920     2.541159
 H     1.845650     0.308254     4.654307
 H    -1.941029     0.849773     1.910268
 H    -2.848096     1.573460     0.600196
 C    -3.984302     0.138461     1.761135
 H    -3.787217    -0.745344     2.389188
 H    -4.689616    -0.191998     0.980344
 C    -4.639663     1.218697     2.609789
 H    -3.967723     1.553491     3.416153
 H    -4.889591     2.103771     2.003417
 H    -5.569193     0.858621     3.076445
 H    -3.256999     0.332457    -1.810224
 C    -2.553490    -1.575412    -2.553737
 H    -2.364627    -2.603530    -2.207687
 H    -1.612389    -1.191393    -2.970927
 H    -3.974572    -1.065505    -0.986077
 H    -3.298215    -1.630282    -3.362397
 H    -1.170689    -1.910476     1.666114
 C    -2.829073    -3.005167     0.774902
 H    -3.238412    -3.247933    -0.216527
 H    -3.641211    -2.563346     1.367292
 H    -0.821054    -2.584758     0.083248
 H    -2.553684    -3.958453     1.252958
