 100
scf done:    -2156.661718
 C    -1.094775    -2.940969    -1.015109
 H    -1.848174    -3.433486    -0.390156
 H    -1.436898    -2.771936    -2.041612
 C     0.296002    -3.234448    -0.790148
 H     0.571454    -3.939907     0.000959
 H     0.957845    -3.283062    -1.659718
 H     0.240202    -0.838959    -1.670967
Ir    -0.151498    -1.226798    -0.121178
 C    -1.795209     1.289935    -1.988162
 C    -3.539580    -0.459612    -0.537457
 C    -2.149923     1.728027     0.852628
 C     1.891498     0.865175     1.994539
 C     3.393245    -0.936174     0.369353
 C     1.984131     1.468035    -0.836329
 P     1.794795     0.026322     0.345820
 P    -1.867850     0.358910    -0.390002
 C    -0.582698    -1.820650     1.635071
 O    -0.869750    -2.246479     2.668586
 H    -2.548796     2.096257    -1.981282
 H    -0.809115     1.780291    -2.006625
 C    -1.945019     0.423931    -3.231874
 H    -2.963553     0.003727    -3.276093
 H    -1.259928    -0.435376    -3.145870
 C    -1.660079     1.191524    -4.513517
 H    -2.332278     2.057867    -4.624675
 H    -0.626100     1.571674    -4.527329
 H    -1.789978     0.553243    -5.400658
 H    -3.353352    -1.170353    -1.363808
 C    -4.699886     0.450133    -0.945624
 H    -4.443800     1.051234    -1.831521
 H    -4.911045     1.166703    -0.131760
 C    -5.960534    -0.364989    -1.228974
 H    -6.792178     0.307642    -1.495742
 H    -5.780783    -1.002226    -2.113737
 C    -6.344410    -1.245616    -0.045733
 H    -7.225132    -1.859814    -0.294311
 H    -6.644541    -0.601618     0.801118
 C    -5.179815    -2.127584     0.389233
 H    -4.950027    -2.855498    -0.409696
 H    -5.454403    -2.718437     1.278023
 C    -3.932425    -1.298958     0.678255
 H    -4.141893    -0.633879     1.534094
 H    -3.097310    -1.948090     0.975513
 H    -3.196055     2.058703     0.714551
 C    -1.243142     2.938536     0.616447
 H    -1.395712     3.351747    -0.391566
 H    -0.190441     2.611894     0.661471
 C    -1.473817     4.033257     1.654207
 H    -0.784063     4.873207     1.469591
 H    -2.494809     4.437421     1.529368
 C    -1.313142     3.510913     3.076122
 H    -1.524643     4.309091     3.805926
 H    -0.260614     3.215772     3.238696
 C    -2.214492     2.307328     3.321158
 H    -3.270812     2.630210     3.284291
 H    -2.050544     1.901466     4.332798
 C    -1.982503     1.213446     2.284287
 H    -0.961247     0.812733     2.390141
 H    -2.650704     0.362098     2.475716
 H     2.766173     1.533569     2.016947
 H     1.005086     1.516227     2.047987
 C     1.927142    -0.057687     3.204840
 H     2.883229    -0.607234     3.221565
 H     1.141889    -0.822707     3.123081
 C     1.758123     0.702245     4.512183
 H     2.534994     1.474359     4.633703
 H     0.780117     1.208584     4.552142
 H     1.817235     0.027967     5.379774
 H     3.221739    -1.580131     1.253929
 C     4.671976    -0.133959     0.617043
 H     4.562530     0.537162     1.483232
 H     4.871505     0.511029    -0.256418
 C     5.866400    -1.061544     0.832780
 H     6.783422    -0.467699     0.980614
 H     5.711506    -1.631314     1.767076
 C     6.041092    -2.036257    -0.326065
 H     6.880997    -2.721737    -0.127023
 H     6.311834    -1.469899    -1.236033
 C     4.758695    -2.817597    -0.589178
 H     4.545679    -3.472275     0.275478
 H     4.885065    -3.484211    -1.457753
 C     3.572060    -1.886471    -0.814156
 H     3.739524    -1.309928    -1.738163
 H     2.644633    -2.453882    -0.960870
 H     0.928281     1.766176    -0.954535
 C     2.470566     1.041388    -2.222096
 H     1.908699     0.156215    -2.557849
 H     3.532262     0.746792    -2.162779
 C     2.334338     2.179060    -3.228157
 H     2.702266     1.856080    -4.215526
 H     1.263516     2.418555    -3.359923
 C     3.074751     3.425610    -2.760458
 H     2.936582     4.252032    -3.476472
 H     4.159299     3.213881    -2.736022
 C     2.616150     3.844640    -1.369430
 H     1.558257     4.162474    -1.417068
 H     3.186400     4.721416    -1.021473
 C     2.741094     2.708378    -0.355876
 H     3.806647     2.468295    -0.201582
 H     2.354343     3.052391     0.614799
