 100
scf done:    -3299.713829
 C     2.782261     2.379981    -2.030803
 H     3.630078     2.875462    -1.546051
 H     3.079018     1.737217    -2.865467
 C     1.520296     3.072145    -2.100020
 H     1.447544     4.074313    -1.663806
 H     0.887335     2.940904    -2.982510
 H     0.952583     0.593361    -2.012137
Ir     1.382229     1.446496    -0.686604
 O     2.400171    -1.807332    -1.022714
 C     4.307997    -0.330735    -0.001325
 C     2.057990    -1.226299     1.600181
 O    -0.888092     0.035519     1.308734
 C    -1.770449     2.499652     0.528987
 C    -1.855939     0.249229    -1.286326
 P    -0.783013     1.064622    -0.042645
 P     2.487351    -0.459370    -0.008406
 C     1.810028     2.584517     0.801024
 O     2.018653     3.298965     1.677235
 C     1.242069    -2.288219    -1.542290
 C     0.861429    -1.936293    -2.840452
 H     1.489892    -1.245317    -3.402502
 C     0.458536    -3.187001    -0.812976
 H     0.776809    -3.481824     0.188193
 C    -0.299451    -2.461836    -3.398938
 H    -0.603180    -2.188436    -4.410646
 C    -0.702667    -3.719106    -1.368326
 H    -1.312476    -4.431890    -0.810394
 C    -1.082917    -3.344325    -2.655597
Cl    -2.538195    -3.994795    -3.338558
 H     4.538904     0.544502     0.629979
 H     4.553703    -0.027126    -1.031185
 C     5.087816    -1.561728     0.432955
 H     4.838953    -1.800102     1.480913
 H     4.762181    -2.428676    -0.167617
 C     6.609004    -1.416424     0.322678
 H     6.899267    -0.513990     0.893691
 C     7.298929    -2.616460     0.961591
 H     7.006997    -2.735967     2.016770
 H     8.394781    -2.517380     0.924387
 H     7.030887    -3.547238     0.434300
 C     7.071523    -1.230305    -1.118283
 H     8.167138    -1.137619    -1.172489
 H     6.643801    -0.328953    -1.582074
 H     6.778694    -2.095784    -1.736087
 H     2.619618    -2.169716     1.702214
 H     0.987072    -1.463931     1.519965
 C     2.294503    -0.301632     2.784807
 H     3.351249     0.018200     2.805572
 H     1.697293     0.615595     2.650895
 C     1.948291    -0.915502     4.144814
 H     2.536419    -1.847155     4.250082
 C     2.364704     0.031098     5.264839
 H     3.439840     0.264982     5.218453
 H     2.155781    -0.401391     6.255476
 H     1.814531     0.984135     5.193641
 C     0.471137    -1.273517     4.259739
 H     0.246648    -1.710353     5.244951
 H     0.153367    -2.000035     3.497399
 H    -0.158131    -0.377407     4.136958
 C    -2.038028    -0.536469     1.759398
 C    -2.400762    -1.805782     1.303167
 H    -1.754897    -2.312014     0.585424
 C    -2.842866     0.119973     2.693885
 H    -2.532776     1.093971     3.075740
 C    -3.589825    -2.390095     1.724446
 H    -3.892115    -3.370002     1.351357
 C    -4.033820    -0.460735     3.120791
 H    -4.677106     0.050841     3.838477
 C    -4.411577    -1.706038     2.619800
Cl    -5.916232    -2.410277     3.111713
 H    -1.251366     2.888875     1.421597
 H    -2.764402     2.150708     0.847922
 C    -1.869155     3.579581    -0.540380
 H    -0.850322     3.832147    -0.875420
 H    -2.386239     3.179091    -1.431681
 C    -2.588170     4.853298    -0.090552
 H    -2.061698     5.228880     0.807279
 C    -2.486801     5.920758    -1.173865
 H    -1.437711     6.134640    -1.430391
 H    -2.956952     6.863925    -0.855278
 H    -2.993980     5.591176    -2.096145
 C    -4.042877     4.597227     0.288109
 H    -4.543585     5.528641     0.594408
 H    -4.138271     3.884213     1.121000
 H    -4.602386     4.185694    -0.569188
 H    -1.480255    -0.786502    -1.342801
 H    -1.551837     0.709253    -2.239133
 C    -3.370301     0.283487    -1.101384
 H    -3.637803     0.142599    -0.044339
 H    -3.756798     1.280639    -1.377587
 C    -4.104757    -0.782841    -1.917282
 H    -3.657913    -1.759741    -1.654679
 C    -5.577255    -0.828581    -1.529055
 H    -5.701151    -1.036774    -0.454294
 H    -6.113453    -1.611081    -2.087950
 H    -6.073257     0.132940    -1.743984
 C    -3.927927    -0.583560    -3.417417
 H    -4.439132    -1.375394    -3.984969
 H    -2.867641    -0.606117    -3.711326
 H    -4.346631     0.386253    -3.735966
