  92
scf done:    -2599.962617
 C     0.928017    -2.370697    -2.096175
 H     1.562176    -1.921254    -2.868329
 H     1.404316    -3.213955    -1.587107
 C    -0.501372    -2.363042    -2.261970
 H    -0.930132    -1.908299    -3.161705
 H    -1.085847    -3.213626    -1.898919
 H    -0.056758    -2.242677     0.272476
Ir     0.064325    -0.949154    -0.737972
 C     2.007650    -0.967764     2.314604
 C     3.467983    -0.931567    -0.196493
 C     2.253890     1.441642     0.849617
 C    -1.545721    -0.027088     2.255849
 C    -2.306873     1.543908    -0.052405
 C    -3.317337    -1.190465     0.334903
 P    -1.803156    -0.148460     0.432839
 P     1.908330    -0.346443     0.572101
 C     0.133384     0.464605    -2.011247
 O     0.128715     1.287615    -2.818449
 H     3.042093    -0.817620     2.660751
 H     1.389304    -0.252371     2.881972
 C     1.521244    -2.382554     2.591090
 H     2.124037    -3.115008     2.029479
 H     0.502198    -2.496815     2.191015
 C     1.548288    -2.714434     4.074920
 H     2.565367    -2.632180     4.491359
 H     0.904677    -2.025126     4.646254
 H     1.190962    -3.738038     4.264862
 C     4.234158    -1.968521     0.332251
 H     3.939894    -2.425543     1.278004
 C     3.878530    -0.348200    -1.413883
 O     3.111031     0.656540    -1.873525
 C     3.436128     1.295154    -3.074661
 H     4.416295     1.799999    -3.013966
 H     2.651408     2.041364    -3.247367
 H     3.447505     0.587709    -3.922170
 C     5.378245    -2.435469    -0.317192
 H     5.957596    -3.252867     0.117305
 C     5.026765    -0.805982    -2.065803
 H     5.345945    -0.352114    -3.004267
 C     5.770853    -1.849836    -1.515121
 H     6.664840    -2.202388    -2.035226
 C     1.296877     2.381704     0.474645
 H     0.367993     2.024149     0.028466
 C     3.464773     1.902943     1.409783
 O     4.362291     0.965351     1.773680
 C     5.660106     1.343022     2.131888
 H     6.140171     1.944400     1.340684
 H     6.227781     0.413040     2.263951
 H     5.679662     1.913828     3.077206
 C     1.505714     3.750760     0.641083
 H     0.731495     4.457536     0.335788
 C     3.688513     3.274752     1.565715
 H     4.624689     3.636020     1.992428
 C     2.707551     4.190610     1.183205
 H     2.896482     5.259134     1.314490
 H    -1.085594    -0.994523     2.515545
 H    -0.747383     0.722916     2.394154
 C    -2.735946     0.248069     3.162775
 H    -3.474850    -0.559595     3.035209
 H    -3.248603     1.170133     2.847930
 C    -2.326043     0.345589     4.624650
 H    -1.831298    -0.579465     4.963117
 H    -1.617597     1.174017     4.788428
 H    -3.194930     0.516910     5.278500
 C    -2.093871     2.663850     0.749709
 H    -1.702397     2.540667     1.760577
 C    -2.800432     1.737848    -1.358840
 O    -2.998173     0.615313    -2.070548
 C    -3.270330     0.696048    -3.440989
 H    -4.248676     1.169055    -3.637525
 H    -3.293258    -0.336255    -3.811752
 H    -2.480731     1.254350    -3.971991
 C    -2.353598     3.953257     0.279644
 H    -2.176828     4.814481     0.927485
 C    -3.053451     3.023984    -1.839264
 H    -3.422614     3.171204    -2.854527
 C    -2.831249     4.127650    -1.014496
 H    -3.032429     5.131084    -1.397395
 C    -3.136126    -2.558492     0.131481
 H    -2.112645    -2.920237     0.009189
 C    -4.633448    -0.701001     0.477402
 O    -4.773776     0.617375     0.711603
 C    -6.045896     1.193042     0.749932
 H    -6.599757     1.023568    -0.190018
 H    -5.891736     2.271676     0.882489
 H    -6.648098     0.808892     1.592475
 C    -4.215343    -3.439497     0.065799
 H    -4.042603    -4.506000    -0.091741
 C    -5.720696    -1.576752     0.386274
 H    -6.739624    -1.201186     0.483557
 C    -5.507019    -2.939936     0.184026
 H    -6.367372    -3.610964     0.120240
