  92
scf done:    -2599.975998
 C     0.715555    -3.497953     0.864812
 H     1.364343    -4.083602     0.203282
 H     1.074517    -3.462748     1.898059
 C    -0.704280    -3.515394     0.614502
 H    -1.073633    -4.112253    -0.227152
 H    -1.399724    -3.492847     1.459037
 H    -0.211514    -1.280012     1.694493
Ir     0.078241    -1.583592     0.109775
 C     1.778281     1.004552     1.871610
 C     3.504961    -0.519912     0.177345
 C     1.717089     1.349755    -0.974219
 C    -1.693514     0.798181    -1.833079
 C    -3.379509    -0.796817    -0.143499
 C    -1.758869     1.234489     1.043103
 P    -1.693899    -0.089748    -0.216500
 P     1.766462     0.037321     0.304839
 C     0.384448    -2.034266    -1.720858
 O     0.549344    -2.315982    -2.825922
 H     2.556322     1.783116     1.789939
 H     0.801139     1.510144     1.936089
 C     2.003858     0.155902     3.113229
 H     2.980134    -0.352883     3.039659
 H     1.242907    -0.640802     3.136316
 C     1.938717     0.982282     4.388385
 H     2.716500     1.763203     4.402771
 H     0.963252     1.486125     4.483733
 H     2.081673     0.354869     5.281425
 C     4.557073     0.398961     0.025885
 H     4.339032     1.467017    -0.064584
 C     3.812545    -1.876257     0.262582
 H     2.991454    -2.588768     0.369836
 C     5.871865    -0.030628    -0.030333
 H     6.698213     0.672044    -0.153743
 C     5.133276    -2.324181     0.208728
 H     5.336035    -3.393157     0.277048
 C     6.172102    -1.399542     0.062856
 O     7.477385    -1.724641    -0.003481
 C     7.841408    -3.074214     0.076380
 H     7.408082    -3.666011    -0.749140
 H     8.935704    -3.110135     0.002306
 H     7.533484    -3.526700     1.035535
 C     1.880823     0.973395    -2.320048
 H     2.136015    -0.060315    -2.565825
 C     1.406222     2.681470    -0.701914
 H     1.281584     3.018652     0.327606
 C     1.699774     1.882355    -3.346641
 H     1.812308     1.589190    -4.391968
 C     1.208296     3.609666    -1.729403
 H     0.949687     4.637707    -1.473639
 C     1.337414     3.208966    -3.061283
 O     1.133521     4.012768    -4.123428
 C     0.744683     5.338437    -3.899611
 H     1.507641     5.901245    -3.333213
 H     0.622137     5.802236    -4.886452
 H    -0.215765     5.396816    -3.356729
 H    -0.785127     1.422256    -1.831167
 H    -1.496328     0.009812    -2.578182
 C    -2.920729     1.604663    -2.232124
 H    -3.186821     2.317205    -1.433747
 H    -3.787215     0.930304    -2.324787
 C    -2.699864     2.353917    -3.538462
 H    -1.842702     3.043314    -3.465599
 H    -2.479722     1.657124    -4.362842
 H    -3.585903     2.941270    -3.824257
 C    -4.489103    -0.072630     0.320697
 H    -4.353640     0.938968     0.711342
 C    -3.586431    -2.089680    -0.626615
 H    -2.723933    -2.669079    -0.964332
 C    -5.759235    -0.627197     0.299440
 H    -6.627516    -0.075867     0.665386
 C    -4.859798    -2.655694    -0.665508
 H    -4.980446    -3.669469    -1.047879
 C    -5.957157    -1.923907    -0.197524
 O    -7.224283    -2.380805    -0.179259
 C    -7.483318    -3.671599    -0.655297
 H    -6.946870    -4.440345    -0.071529
 H    -8.563218    -3.835549    -0.549329
 H    -7.208944    -3.780230    -1.719551
 C    -1.930909     0.858626     2.388106
 H    -2.106232    -0.192092     2.631618
 C    -1.522796     2.579808     0.765308
 H    -1.380531     2.912970    -0.263201
 C    -1.852268     1.788932     3.408070
 H    -1.979483     1.499509     4.452865
 C    -1.426205     3.530501     1.786841
 H    -1.227247     4.570608     1.527005
 C    -1.582431     3.136552     3.118058
 O    -1.488452     3.963662     4.176784
 C    -1.190658     5.312833     3.953726
 H    -1.968039     5.810824     3.347539
 H    -1.147886     5.793706     4.939084
 H    -0.214696     5.439382     3.452109
