 100
scf done:    -2904.734190
 C     0.300696     1.648854    -2.926528
 H    -0.361854     1.322947    -3.736223
 H     0.174588     2.700516    -2.654058
 C     1.594710     1.044011    -2.807157
 H     1.884571     0.258611    -3.512183
 H     2.432954     1.646816    -2.450336
 H     0.889124     1.706582    -0.462314
Ir     0.330689     0.362485    -1.185686
 C    -1.247751     1.856298     1.607914
 O    -2.914344     1.375943    -0.279048
 O    -1.939677    -0.711821     0.906192
 C     1.519007    -2.422336     0.857872
 O     3.284510    -0.595905     0.188836
 O     1.440573     0.078563     1.870175
 P     1.630652    -0.656860     0.378384
 P    -1.452635     0.718434     0.181247
 C    -0.361276    -1.118275    -2.227581
 O    -0.817185    -1.911396    -2.917943
 H    -0.669415     1.296715     2.355350
 H    -2.259034     2.043999     2.000090
 C    -0.540558     3.131801     1.255825
 C    -1.086528     4.031382     0.331894
 H    -2.054759     3.809750    -0.123400
 C     0.703947     3.422536     1.823885
 H     1.138322     2.719271     2.538395
 C    -0.396128     5.187840    -0.021731
 H    -0.831653     5.876346    -0.749918
 C     1.391594     4.583535     1.476315
 H     2.361619     4.796421     1.933098
 C     0.846385     5.467427     0.546975
 H     1.386985     6.374771     0.267376
 C    -3.736161     0.966766    -1.300891
 C    -3.245872     0.656478    -2.566449
 H    -2.178725     0.761566    -2.756585
 C    -5.110167     0.918508    -1.012028
 C    -5.622710     1.341828     0.328982
 H    -5.217239     0.712349     1.134037
 H    -5.322565     2.377138     0.554511
 H    -6.718766     1.282611     0.364808
 C    -4.122766     0.220708    -3.558194
 H    -3.732184    -0.036621    -4.545249
 C    -5.964524     0.482813    -2.028275
 H    -7.036773     0.430205    -1.820538
 C    -5.484269     0.120496    -3.286546
 H    -6.177548    -0.223753    -4.057149
 C    -3.133053    -0.995543     1.520079
 C    -3.432166    -0.486153     2.783630
 H    -2.721096     0.174260     3.281248
 C    -4.001049    -1.884239     0.863698
 C    -3.636000    -2.456527    -0.470182
 H    -3.642352    -1.685404    -1.256219
 H    -2.620400    -2.878996    -0.453323
 H    -4.341045    -3.244822    -0.764918
 C    -4.631957    -0.831051     3.403747
 H    -4.866804    -0.426534     4.390782
 C    -5.196730    -2.211277     1.509659
 H    -5.888354    -2.896473     1.012364
 C    -5.520174    -1.690119     2.761743
 H    -6.463684    -1.963522     3.239019
 H     0.501429    -2.541948     1.257342
 H     2.226612    -2.577819     1.687531
 C     1.765304    -3.379070    -0.266814
 C     3.069357    -3.736035    -0.628987
 H     3.909461    -3.315663    -0.072675
 C     0.695806    -3.929835    -0.979312
 H    -0.326679    -3.670275    -0.694966
 C     3.296735    -4.610666    -1.687773
 H     4.320933    -4.879242    -1.958070
 C     0.920515    -4.799555    -2.043823
 H     0.071487    -5.209157    -2.595540
 C     2.222746    -5.140685    -2.403015
 H     2.401686    -5.823507    -3.236874
 C     3.910086     0.492378    -0.377643
 C     3.678526     1.778198     0.105987
 H     2.975676     1.923019     0.925895
 C     4.781743     0.258698    -1.450558
 C     4.979785    -1.125229    -1.983183
 H     5.434274    -1.785123    -1.227711
 H     4.017755    -1.582480    -2.260883
 H     5.631897    -1.115835    -2.866982
 C     4.312644     2.865697    -0.488543
 H     4.106073     3.873732    -0.122507
 C     5.420236     1.366567    -2.015372
 H     6.099703     1.205110    -2.856616
 C     5.190036     2.660384    -1.550317
 H     5.691627     3.507350    -2.023571
 C     1.455916    -0.511181     3.110299
 C     0.281994    -1.098330     3.583930
 H    -0.591664    -1.122371     2.929857
 C     2.614666    -0.448612     3.899407
 C     3.860496     0.206429     3.387733
 H     4.187479    -0.240016     2.437711
 H     3.692706     1.276538     3.187951
 H     4.676763     0.120665     4.117238
 C     0.244949    -1.649622     4.861533
 H    -0.675964    -2.111392     5.224724
 C     2.547165    -1.009112     5.180036
 H     3.438329    -0.971636     5.812497
 C     1.383754    -1.605859     5.662688
 H     1.368400    -2.034665     6.667064
