  88
scf done:    -4585.469347
 C     0.346138    -4.014193    -0.869707
 H    -0.069914    -4.748503    -0.172908
 H    -0.094771    -4.060156    -1.870057
 C     1.718611    -3.620475    -0.736856
 H     2.324468    -4.061392     0.060656
 H     2.293397    -3.365117    -1.631061
 H     0.487055    -1.563993    -1.670335
Ir     0.441043    -1.995823    -0.090090
 C    -2.650906    -1.835356    -1.722802
 O    -2.793293    -1.522201     0.896425
 O    -1.748793     0.450919    -0.418577
 C     1.759089     0.627698     1.904712
 O     3.323678    -0.208301    -0.039533
 O     1.227336     1.098139    -0.796845
 P     1.680812    -0.117241     0.227333
 P    -1.674981    -1.204056    -0.302136
 C     0.514817    -2.572082     1.752513
 O     0.635730    -2.912136     2.840144
 H    -2.534982    -2.926881    -1.616663
 H    -2.051527    -1.551622    -2.601867
 C    -4.092544    -1.447532    -1.888767
 C    -4.480314    -0.599148    -2.932044
 H    -3.725863    -0.223781    -3.627615
 C    -5.076721    -1.929377    -1.016659
 H    -4.791196    -2.599110    -0.203946
 C    -5.807645    -0.205912    -3.078047
 H    -6.085757     0.478291    -3.882886
 C    -6.405699    -1.540886    -1.164419
 H    -7.159955    -1.921521    -0.471293
 C    -6.775330    -0.670760    -2.189278
 H    -7.816304    -0.357862    -2.298384
 C    -2.457746    -1.448849     2.218247
 C    -2.731435    -2.546761     3.032352
 H    -3.191055    -3.432169     2.590046
 C    -1.863138    -0.304853     2.755557
 H    -1.670138     0.553066     2.109170
 C    -2.400578    -2.510409     4.382278
 H    -2.600425    -3.366890     5.027695
 C    -1.521776    -0.269839     4.104197
 H    -1.047890     0.613666     4.535259
 C    -1.787738    -1.374693     4.911412
Cl    -1.354311    -1.335534     6.586547
 C    -2.799356     1.221604    -0.842728
 C    -4.013112     1.250306    -0.154691
 H    -4.155673     0.618521     0.722004
 C    -2.601474     2.022997    -1.966132
 H    -1.636067     1.989469    -2.474640
 C    -5.049979     2.045651    -0.627536
 H    -6.016153     2.053012    -0.121718
 C    -3.635222     2.829025    -2.433557
 H    -3.500803     3.450810    -3.320015
 C    -4.860246     2.822464    -1.770027
Cl    -6.174421     3.768448    -2.386860
 H     2.008954    -0.238637     2.540381
 H     0.711770     0.875927     2.133906
 C     2.668241     1.788982     2.189028
 C     2.132823     3.053420     2.458016
 H     1.048553     3.189086     2.456672
 C     4.059839     1.633144     2.206399
 H     4.491662     0.651315     2.007078
 C     2.962568     4.145317     2.697232
 H     2.525585     5.130114     2.877157
 C     4.890866     2.723253     2.450292
 H     5.974918     2.585483     2.453966
 C     4.346797     3.985006     2.687549
 H     4.999774     4.842060     2.867742
 C     3.862598    -0.913096    -1.079866
 C     4.905647    -1.794340    -0.799248
 H     5.239364    -1.908084     0.233498
 C     3.407023    -0.753811    -2.389436
 H     2.588319    -0.064013    -2.598870
 C     5.495231    -2.524569    -1.825222
 H     6.309233    -3.220638    -1.617444
 C     3.989677    -1.490548    -3.416658
 H     3.638029    -1.382240    -4.443743
 C     5.029488    -2.373861    -3.131325
Cl     5.752956    -3.290798    -4.411128
 C     1.567954     2.422639    -0.699253
 C     2.888282     2.849974    -0.843567
 H     3.680223     2.120229    -1.012372
 C     0.543188     3.342532    -0.485004
 H    -0.480985     2.979452    -0.388243
 C     3.188258     4.201590    -0.720873
 H     4.219364     4.548591    -0.797184
 C     0.840691     4.697486    -0.374782
 H     0.051033     5.428286    -0.193407
 C     2.165367     5.116895    -0.475747
Cl     2.552208     6.793173    -0.264316
