  80
scf done:    -2839.728550
 C    -0.171748    -1.751620     3.394660
 H    -0.319898    -1.174895     4.313537
 H    -0.989701    -2.449792     3.189732
 C     1.162526    -2.117844     3.006478
 H     2.006465    -1.808892     3.630523
 H     1.327664    -3.069854     2.495316
 H    -0.148111    -1.847356     0.834903
Ir     0.437511    -0.583079     1.674737
 C    -2.586097     1.360432     1.826973
 O    -0.779133     1.852956    -0.144853
 O    -2.262523    -0.120795    -0.364502
 C     2.280872     1.165085    -0.857273
 O     3.477495    -0.892788     0.460787
 O     1.794687    -1.418260    -1.330785
 P     1.968840    -0.417454    -0.003575
 P    -1.299263     0.581658     0.791367
 C     1.161041     0.812858     2.802665
 O     1.598339     1.604733     3.506603
 H    -3.201901     1.998824     1.170342
 H    -3.236710     0.539808     2.173777
 C    -2.023915     2.136746     3.009528
 H    -1.266341     2.857195     2.655892
 H    -1.484351     1.437696     3.669065
 C    -3.101728     2.868395     3.792897
 H    -3.625700     3.603189     3.161161
 H    -3.857702     2.166720     4.179380
 H    -2.674970     3.407268     4.651950
 C    -1.590310     2.731756    -0.817019
 C    -1.758002     4.021082    -0.311331
 H    -1.271005     4.293094     0.626937
 C    -2.185879     2.363862    -2.025110
 H    -2.033492     1.352345    -2.401661
 C    -2.531308     4.947124    -1.006930
 H    -2.676917     5.962646    -0.634715
 C    -2.960973     3.286503    -2.721592
 H    -3.439517     3.027663    -3.667887
 C    -3.126509     4.566183    -2.203567
 F    -3.868002     5.447890    -2.871368
 C    -3.145221    -1.146711    -0.208829
 C    -4.104500    -1.298658    -1.212640
 H    -4.117338    -0.590010    -2.041491
 C    -3.108588    -2.039194     0.864274
 H    -2.349315    -1.928313     1.639603
 C    -5.008210    -2.353016    -1.163717
 H    -5.752845    -2.496801    -1.948198
 C    -4.020375    -3.092243     0.918814
 H    -4.006882    -3.805007     1.745362
 C    -4.954736    -3.242868    -0.096641
 F    -5.821050    -4.255903    -0.045815
 H     3.098318     1.009072    -1.581108
 H     1.356562     1.358702    -1.425232
 C     2.558409     2.336590     0.073197
 H     3.430138     2.112941     0.710355
 H     1.698138     2.457737     0.749105
 C     2.790830     3.632108    -0.687399
 H     3.656158     3.551068    -1.364189
 H     1.911574     3.892598    -1.298148
 H     2.980990     4.470202    -0.000124
 C     4.631832    -0.689944    -0.252780
 C     5.621039     0.112632     0.316641
 H     5.438117     0.562387     1.294200
 C     4.843412    -1.297979    -1.491890
 H     4.062040    -1.929097    -1.915310
 C     6.822923     0.319964    -0.353900
 H     7.613067     0.941110     0.071509
 C     6.042970    -1.086992    -2.167394
 H     6.235243    -1.548823    -3.137506
 C     7.017464    -0.280333    -1.592359
 F     8.164877    -0.080885    -2.239908
 C     0.595615    -1.677581    -1.937836
 C     0.115980    -0.825767    -2.932845
 H     0.694064     0.057366    -3.209512
 C    -0.117324    -2.828258    -1.595459
 H     0.279557    -3.484741    -0.820803
 C    -1.081834    -1.117673    -3.581509
 H    -1.474092    -0.473802    -4.370968
 C    -1.314384    -3.123650    -2.238989
 H    -1.899196    -4.007044    -1.977474
 C    -1.783064    -2.260859    -3.221738
 F    -2.936521    -2.533182    -3.834267
