  88
scf done:    -2299.311840
 C    -0.209169    -3.265939    -1.170104
 H    -0.916972    -3.916894    -0.647914
 H    -0.407436    -3.181168    -2.242949
 C     1.148646    -3.213272    -0.704856
 H     1.436170    -3.828048     0.154059
 H     1.957472    -3.072733    -1.425600
 H     0.721913    -0.895159    -1.665060
Ir     0.145953    -1.371856    -0.198345
 C    -1.836666     0.474287    -2.486930
 C    -3.392580    -0.953509    -0.576471
 C    -2.005978     1.477855     0.204410
 C     1.125533     1.099693     2.154574
 C     3.377560    -0.201166     0.967504
 C     1.804811     1.636327    -0.664827
 P     1.615617     0.254252     0.578065
 P    -1.739520    -0.115564    -0.742878
 C    -0.360374    -1.966510     1.549964
 O    -0.568887    -2.295397     2.632794
 H    -2.791199     1.009553    -2.626798
 H    -1.034944     1.224792    -2.598972
 C    -1.662380    -0.614370    -3.535875
 H    -2.452224    -1.376424    -3.421290
 H    -0.710235    -1.134330    -3.346818
 C    -1.691806    -0.062739    -4.952748
 H    -2.644450     0.446891    -5.169828
 H    -0.883272     0.669323    -5.109792
 H    -1.563605    -0.863355    -5.696934
 H    -3.451484    -1.633943    -1.438653
 H    -4.176204    -0.189612    -0.707938
 C    -3.568006    -1.728409     0.693291
 C    -3.886383    -1.100966     1.904546
 H    -4.049753    -0.021436     1.931804
 C    -3.383738    -3.116449     0.699582
 H    -3.138346    -3.622368    -0.236728
 C    -4.003056    -1.833253     3.083892
 H    -4.247745    -1.320485     4.017179
 C    -3.502760    -3.852424     1.875027
 H    -3.349391    -4.934001     1.854057
 C    -3.807866    -3.212432     3.074536
 H    -3.892910    -3.786767     3.999730
 H    -1.016233     1.954628     0.217518
 H    -2.211611     1.165977     1.239583
 C    -3.028423     2.437882    -0.317434
 C    -4.377158     2.364032     0.056133
 H    -4.698269     1.613461     0.781823
 C    -2.652659     3.437353    -1.227118
 H    -1.603325     3.524316    -1.523501
 C    -5.318885     3.244832    -0.473042
 H    -6.363979     3.167414    -0.163699
 C    -3.589934     4.319929    -1.756660
 H    -3.270091     5.090464    -2.462308
 C    -4.930587     4.223910    -1.385277
 H    -5.668195     4.915131    -1.799287
 H     0.313208     1.791629     1.879211
 H     0.641996     0.313857     2.758699
 C     2.170854     1.829295     2.993034
 H     2.753240     2.523646     2.369375
 H     2.891986     1.101173     3.398193
 C     1.533274     2.600442     4.138649
 H     0.857231     3.382361     3.756838
 H     0.941228     1.938222     4.790797
 H     2.293549     3.094518     4.762410
 H     3.322226    -0.707508     1.943329
 H     3.947142     0.729433     1.119589
 C     4.047474    -1.099167    -0.026860
 C     4.576285    -0.607377    -1.226706
 H     4.524385     0.461330    -1.447020
 C     4.157604    -2.470139     0.229283
 H     3.746941    -2.871351     1.158962
 C     5.178912    -1.460503    -2.148691
 H     5.581444    -1.054079    -3.079700
 C     4.765603    -3.325766    -0.684815
 H     4.834728    -4.393426    -0.463420
 C     5.273970    -2.825113    -1.882104
 H     5.747074    -3.495427    -2.603458
 H     0.796706     1.773250    -1.080729
 H     2.406009     1.201208    -1.476898
 C     2.356908     2.932472    -0.165572
 C     3.735829     3.179358    -0.120748
 H     4.431038     2.437514    -0.520708
 C     1.493910     3.923791     0.323376
 H     0.412477     3.767712     0.275299
 C     4.236210     4.357009     0.430939
 H     5.315524     4.524682     0.459709
 C     1.989975     5.101595     0.875756
 H     1.296620     5.855904     1.255452
 C     3.365873     5.318715     0.941800
 H     3.757883     6.240237     1.378027
