 106
scf done:    -2983.171341
 C     0.700560    -1.304226    -3.801880
 H     1.234235    -0.608615    -4.457760
 H     1.214369    -2.264699    -3.695243
 C    -0.740070    -1.287019    -3.786460
 H    -1.268026    -0.582833    -4.438817
 H    -1.275903    -2.232049    -3.649079
 H     0.063512    -1.999107    -1.433730
Ir     0.002064    -0.439974    -1.956204
 C     1.054711    -0.439814     1.389348
 C     3.196306    -1.053140    -0.458016
 C     2.235957     1.650476    -0.232408
 C    -3.431615    -0.038337    -1.852139
 C    -2.465415    -1.359375     0.549702
 C    -2.049759     1.467505     0.202616
 P    -1.958241    -0.127157    -0.703310
 P     1.656622    -0.080373    -0.340931
 C     0.123278     1.336267    -2.648887
 O     0.249921     2.399184    -3.067805
 H     0.299115     0.335190     1.580412
 H     0.504594    -1.384438     1.296329
 C     2.076301    -0.483597     2.479096
 C     2.505122     0.706734     3.080373
 H     2.053027     1.650097     2.766391
 C     2.652244    -1.706362     2.884447
 C     2.220708    -3.010864     2.279980
 H     2.426496    -3.038232     1.198354
 H     1.138881    -3.180254     2.408896
 H     2.751912    -3.852500     2.745110
 C     3.506472     0.709916     4.047143
 H     3.830930     1.652547     4.494388
 C     3.651517    -1.685455     3.862827
 H     4.102656    -2.631740     4.173988
 C     4.087826    -0.494282     4.437338
 H     4.876260    -0.508902     5.193748
 C     4.321589    -0.787200     0.344210
 H     4.323798     0.067948     1.022973
 C     3.239152    -2.151341    -1.317694
 H     2.369454    -2.350485    -1.946958
 C     5.437735    -1.604813     0.290140
 H     6.312305    -1.410053     0.913327
 C     4.355967    -2.984194    -1.379514
 H     4.350948    -3.832198    -2.064552
 C     5.463461    -2.715080    -0.567801
 O     6.588237    -3.455090    -0.546914
 C     6.677486    -4.572049    -1.386150
 H     6.598849    -4.293016    -2.451659
 H     7.662983    -5.021167    -1.209021
 H     5.898003    -5.320532    -1.158308
 C     3.416157     2.083881    -0.854209
 H     4.076371     1.358506    -1.334997
 C     1.403879     2.616252     0.339093
 H     0.457181     2.324776     0.796151
 C     3.758658     3.428140    -0.875519
 H     4.676186     3.770363    -1.357795
 C     1.734136     3.969048     0.327084
 H     1.045634     4.683957     0.778750
 C     2.923293     4.384187    -0.282377
 O     3.332128     5.666605    -0.351623
 C     2.514380     6.660183     0.198339
 H     2.376507     6.524358     1.286024
 H     3.019662     7.618298     0.022095
 H     1.519555     6.686525    -0.280414
 H    -3.251156     0.859101    -2.463655
 H    -3.295754    -0.895112    -2.524905
 C    -4.782994    -0.011056    -1.212571
 C    -5.299151     1.200062    -0.733645
 H    -4.725340     2.117173    -0.884401
 C    -5.526145    -1.196975    -1.028642
 C    -5.026049    -2.521909    -1.525973
 H    -4.079555    -2.803264    -1.038244
 H    -4.839021    -2.506150    -2.611785
 H    -5.757126    -3.316435    -1.323775
 C    -6.514142     1.253798    -0.056948
 H    -6.891635     2.210217     0.312397
 C    -6.749225    -1.123015    -0.353626
 H    -7.324354    -2.041382    -0.206982
 C    -7.241977     0.082425     0.139407
 H    -8.197796     0.106719     0.668339
 C    -3.557616    -1.146612     1.413291
 H    -4.110983    -0.206351     1.380458
 C    -1.798753    -2.583889     0.625094
 H    -0.958762    -2.761348    -0.052026
 C    -3.953681    -2.122400     2.312387
 H    -4.802903    -1.963936     2.979331
 C    -2.185881    -3.574644     1.526456
 H    -1.635738    -4.515582     1.550355
 C    -3.271810    -3.347010     2.379304
 O    -3.726382    -4.232233     3.283724
 C    -3.081147    -5.470008     3.402328
 H    -2.022040    -5.353972     3.692201
 H    -3.606346    -6.024149     4.190361
 H    -3.130844    -6.049923     2.464038
 C    -2.043167     2.663009    -0.538572
 H    -2.110481     2.634598    -1.628323
 C    -1.934067     1.566914     1.590867
 H    -1.937337     0.664630     2.205273
 C    -1.908895     3.894517     0.077718
 H    -1.884939     4.817611    -0.504029
 C    -1.782982     2.802097     2.227469
 H    -1.674527     2.827242     3.311878
 C    -1.753236     3.975173     1.469373
 O    -1.554049     5.209526     1.976282
 C    -1.363479     5.344697     3.357972
 H    -0.472513     4.790876     3.703315
 H    -1.215786     6.414444     3.552428
 H    -2.241856     4.996580     3.928893
