  96
scf done:    -2603.940946
 C    -0.620478    -3.663618    -1.135179
 H    -1.147615    -4.348239    -0.461952
 H    -1.130677    -3.517283    -2.092886
 C     0.818921    -3.640562    -1.112497
 H     1.338274    -4.317486    -0.424646
 H     1.364423    -3.471367    -2.045912
 H     0.094981    -1.290597    -1.781428
Ir     0.063079    -1.833170    -0.230014
 C    -2.143797     0.413212    -1.629771
 C    -3.393614    -1.180690     0.435962
 C    -1.684851     0.922922     1.275711
 C     2.312455     0.179333     1.708715
 C     3.395347    -0.705021    -0.774817
 C     1.386599     1.334629    -0.824201
 P     1.782247    -0.266581    -0.029689
 P    -1.791273    -0.400445     0.007783
 C     0.113051    -2.547699     1.540589
 O     0.189295    -2.978017     2.606412
 H    -2.187383    -0.461862    -2.297485
 H    -1.208423     0.934815    -1.883450
 C    -3.333272     1.302254    -1.840629
 C    -3.144098     2.658389    -2.143359
 H    -2.124057     3.046210    -2.206592
 C    -4.645167     0.812809    -1.783937
 H    -4.820871    -0.244533    -1.577859
 C    -4.228089     3.507780    -2.352220
 H    -4.054402     4.561423    -2.585346
 C    -5.730479     1.662165    -1.989524
 H    -6.745089     1.260098    -1.934218
 C    -5.528857     3.013165    -2.268032
 H    -6.382426     3.676010    -2.428874
 C    -3.717921    -2.404816    -0.161789
 H    -2.978451    -2.896530    -0.796745
 C    -4.335150    -0.572943     1.272053
 H    -4.107261     0.382482     1.748721
 C    -4.961647    -2.988506     0.051177
 H    -5.197808    -3.940407    -0.433069
 C    -5.573634    -1.171493     1.492320
 H    -6.297130    -0.678225     2.147561
 C    -5.913208    -2.384162     0.884228
 C    -7.238294    -3.039140     1.141271
 H    -7.625560    -3.533357     0.237954
 H    -7.147886    -3.813666     1.921241
 H    -7.988288    -2.312645     1.485149
 C    -2.153750     2.228651     1.104881
 H    -2.648810     2.519716     0.180160
 C    -1.085894     0.593568     2.499973
 H    -0.723459    -0.422478     2.666426
 C    -1.985937     3.182317     2.108432
 H    -2.349731     4.200073     1.940697
 C    -0.931192     1.544580     3.501734
 H    -0.454726     1.257756     4.443610
 C    -1.364865     2.865575     3.319478
 C    -1.174926     3.890363     4.398390
 H    -1.714955     3.605041     5.315309
 H    -0.112148     3.990160     4.669902
 H    -1.539658     4.878617     4.085832
 H     2.300480    -0.784223     2.239659
 H     1.501538     0.783382     2.140915
 C     3.650988     0.836143     1.834665
 C     3.806923     2.224255     1.734267
 H     2.928166     2.860219     1.613068
 C     4.799527     0.049751     1.996053
 H     4.696887    -1.035947     2.068295
 C     5.073117     2.805152     1.775417
 H     5.172298     3.890369     1.692833
 C     6.064796     0.626927     2.037806
 H     6.945624    -0.008725     2.155480
 C     6.207681     2.009020     1.921839
 H     7.200192     2.465009     1.950748
 C     3.796311    -2.042743    -0.752835
 H     3.090533    -2.798144    -0.400997
 C     4.301585     0.262097    -1.229220
 H     4.021191     1.317428    -1.230400
 C     5.075162    -2.405387    -1.169921
 H     5.371919    -3.457557    -1.139772
 C     5.571436    -0.108418    -1.654726
 H     6.266934     0.662918    -1.997234
 C     5.983628    -1.447318    -1.630932
 C     7.351594    -1.837263    -2.108178
 H     8.112300    -1.112614    -1.781012
 H     7.640913    -2.830981    -1.737897
 H     7.389211    -1.871326    -3.209846
 C     1.439333     1.418848    -2.224915
 H     1.802102     0.564802    -2.802295
 C     0.882855     2.428310    -0.117826
 H     0.782070     2.392202     0.967948
 C     1.022074     2.566644    -2.885857
 H     1.071727     2.604046    -3.977781
 C     0.462522     3.577861    -0.787338
 H     0.061878     4.413037    -0.206472
 C     0.527414     3.673214    -2.178755
 C     0.079625     4.908883    -2.902864
 H    -0.411786     5.618836    -2.222721
 H     0.933335     5.427692    -3.368511
 H    -0.627373     4.665202    -3.711610
