  76
scf done:    -1990.856380
 C    -1.030211    -3.170706     0.255630
 H    -1.630221    -3.412649     1.138242
 H    -1.557761    -3.337045    -0.687273
 C     0.394870    -3.338934     0.308355
 H     0.854666    -3.709471     1.230106
 H     0.922744    -3.661374    -0.594249
 H    -0.080196    -1.347844    -1.300681
Ir    -0.108616    -1.224762     0.337578
 C    -1.701429     1.490996    -1.371634
 O    -3.179292    -0.622037    -0.544617
 O    -2.500682     1.038799     1.186937
 C     2.723839     0.401548     1.642538
 O     3.034903    -0.502107    -0.801857
 O     1.472404     1.520981    -0.570755
 P     1.779810     0.043298     0.109123
 P    -1.845576     0.198311    -0.078579
 C    -0.212888    -1.130843     2.249982
 O    -0.292835    -1.053385     3.393363
 H    -2.663629     2.030121    -1.424297
 H    -0.931610     2.202997    -1.034775
 C    -1.320436     0.923828    -2.733249
 H    -1.958342     0.054156    -2.962425
 H    -0.294145     0.532601    -2.668306
 C    -1.423734     1.951643    -3.848047
 H    -2.456987     2.317781    -3.963343
 H    -0.785414     2.826725    -3.647730
 H    -1.111772     1.527197    -4.814621
 C    -4.479463    -0.032732    -0.626607
 H    -4.393629     1.061098    -0.498313
 C    -5.320202    -0.582274     0.508019
 H    -4.854987    -0.329937     1.470808
 H    -5.390364    -1.677967     0.430780
 H    -6.337447    -0.162353     0.482901
 C    -5.043627    -0.333917    -1.999970
 H    -4.415369     0.105878    -2.788503
 H    -5.084259    -1.421738    -2.161908
 H    -6.061421     0.072229    -2.100752
 C    -2.153590     2.352007     1.608739
 H    -2.254647     3.040746     0.748542
 C    -0.727659     2.423545     2.124782
 H    -0.006961     2.155955     1.339288
 H    -0.593779     1.734593     2.972289
 H    -0.498756     3.444971     2.464906
 C    -3.175196     2.738396     2.658437
 H    -4.193440     2.671726     2.248905
 H    -3.105145     2.056784     3.519629
 H    -3.003465     3.766872     3.008887
 H     2.125217     1.141152     2.202301
 H     2.635727    -0.539067     2.212487
 C     4.192041     0.800278     1.558505
 H     4.302804     1.768193     1.045651
 H     4.719308     0.064678     0.932175
 C     4.838461     0.884772     2.933121
 H     4.340953     1.636675     3.566813
 H     4.779026    -0.080081     3.461659
 H     5.901623     1.160476     2.860720
 C     2.892779    -1.488051    -1.828023
 H     2.024201    -2.115613    -1.567999
 C     4.152669    -2.326411    -1.809724
 H     4.288429    -2.789588    -0.821853
 H     5.036067    -1.705521    -2.026395
 H     4.096252    -3.125477    -2.563764
 C     2.634409    -0.818737    -3.162346
 H     1.691985    -0.253242    -3.133938
 H     3.453704    -0.128308    -3.417627
 H     2.552141    -1.570696    -3.961349
 C     2.468005     2.476589    -0.946389
 H     3.453525     1.981033    -0.943136
 C     2.456146     3.626028     0.044143
 H     2.648566     3.277249     1.068423
 H     1.474777     4.124875     0.034499
 H     3.224112     4.370839    -0.214151
 C     2.162714     2.936087    -2.357783
 H     2.165667     2.086342    -3.053157
 H     1.170864     3.411757    -2.398341
 H     2.910385     3.668133    -2.698211
