 114
scf done:    -2539.847373
 C    -1.163538    -3.266700    -0.422811
 H    -1.680674    -3.707321     0.436373
 H    -1.778179    -3.254673    -1.329317
 C     0.255543    -3.463640    -0.553419
 H     0.780061    -4.033845     0.221264
 H     0.674768    -3.615072    -1.551964
 H    -0.287029    -1.216358    -1.668816
Ir    -0.145192    -1.407943    -0.042418
 C    -2.696988     0.317262    -1.611336
 C    -3.493172    -0.744824     0.995783
 C    -1.904975     1.712811     0.856890
 C     2.389924     0.463124     1.382257
 C     3.242388    -1.488951    -0.753349
 C     2.061581     1.193197    -1.443589
 P     1.921485    -0.262643    -0.277810
 P    -2.023626     0.012328     0.106951
 C     0.110668    -1.696732     1.823106
 O     0.321273    -1.881480     2.942591
 H    -1.955895     0.975577    -2.088427
 H    -2.583848    -0.656458    -2.103682
 C    -4.080925     0.868689    -1.759155
 C    -4.309317     2.238909    -1.574744
 H    -3.457729     2.896016    -1.382881
 C    -5.175230     0.028895    -2.061197
 C    -4.993431    -1.428524    -2.382751
 H    -4.506555    -1.989079    -1.570646
 H    -4.364988    -1.563853    -3.278063
 H    -5.961953    -1.907290    -2.581526
 C    -5.591303     2.778065    -1.617992
 H    -5.740224     3.848837    -1.460472
 C    -6.458652     0.586124    -2.095342
 H    -7.308354    -0.065152    -2.318253
 C    -6.677385     1.941641    -1.862848
 H    -7.692371     2.344663    -1.891484
 H    -3.901123    -1.411467     0.215428
 C    -4.608249     0.222496     1.411000
 H    -4.897619     0.884262     0.585139
 H    -4.239983     0.871714     2.224495
 C    -5.832063    -0.540077     1.910814
 H    -6.618505     0.172383     2.208750
 H    -6.250737    -1.129538     1.074917
 C    -5.481574    -1.468252     3.066682
 H    -6.366040    -2.044347     3.384323
 H    -5.177944    -0.859578     3.937945
 C    -4.339656    -2.404579     2.691162
 H    -4.683644    -3.099478     1.903166
 H    -4.053413    -3.030947     3.551660
 C    -3.121244    -1.644318     2.176474
 H    -2.694512    -1.037982     2.994016
 H    -2.337875    -2.349460     1.873161
 H    -2.915557     2.156321     0.832936
 C    -0.953276     2.602725     0.063708
 H    -1.299526     2.727041    -0.974113
 H     0.014096     2.081802    -0.002065
 C    -0.752314     3.969689     0.707295
 H    -0.029324     4.556594     0.116331
 H    -1.703905     4.531078     0.678260
 C    -0.287943     3.843415     2.152544
 H    -0.184814     4.838548     2.614298
 H     0.719426     3.388185     2.174621
 C    -1.249016     2.977087     2.956292
 H    -2.225975     3.488862     3.026227
 H    -0.887615     2.855058     3.990094
 C    -1.445648     1.608020     2.313649
 H    -0.497826     1.042717     2.343784
 H    -2.164906     1.019863     2.902488
 H     1.534333     1.129829     1.574085
 H     2.260170    -0.374941     2.077952
 C     3.667194     1.193871     1.671339
 C     3.831700     2.515751     1.239450
 H     3.019096     2.998781     0.690359
 C     4.688921     0.596478     2.441650
 C     4.530739    -0.779098     3.027162
 H     4.323639    -1.542785     2.261262
 H     3.694134    -0.817028     3.743805
 H     5.440715    -1.082969     3.562214
 C     4.999176     3.228605     1.495330
 H     5.101383     4.256180     1.138673
 C     5.858447     1.324355     2.687167
 H     6.653500     0.858605     3.276041
 C     6.026858     2.623001     2.213223
 H     6.951967     3.165547     2.421366
 H     2.998568    -2.311821    -0.054457
 C     4.730194    -1.166385    -0.589894
 H     4.948407    -0.735772     0.394091
 H     5.035586    -0.408670    -1.325881
 C     5.560093    -2.428993    -0.814194
 H     6.631566    -2.200741    -0.691823
 H     5.309430    -3.170674    -0.033646
 C     5.300050    -3.033604    -2.190022
 H     5.869741    -3.968977    -2.314630
 H     5.675664    -2.337137    -2.961825
 C     3.812919    -3.278689    -2.425048
 H     3.458429    -4.077757    -1.749406
 H     3.641252    -3.641923    -3.451531
 C     2.989678    -2.020727    -2.168745
 H     3.276936    -1.246019    -2.901281
 H     1.918000    -2.213552    -2.316669
 H     1.706498     2.026169    -0.810269
 C     1.103059     1.109220    -2.631141
 H     0.104100     0.820479    -2.278969
 H     1.425201     0.297180    -3.305712
 C     1.060050     2.429171    -3.392752
 H     0.381271     2.344695    -4.257162
 H     0.629132     3.206807    -2.734874
 C     2.447915     2.868759    -3.844781
 H     2.400344     3.851104    -4.342334
 H     2.822815     2.155426    -4.600969
 C     3.424118     2.907622    -2.675103
 H     3.123855     3.706209    -1.971463
 H     4.435880     3.170329    -3.024591
 C     3.461951     1.576169    -1.929605
 H     3.832647     0.796643    -2.615190
 H     4.174099     1.630976    -1.095752
