  96
scf done:    -2603.922521
 C    -1.802176     0.007627    -2.957415
 H    -2.422148    -0.861537    -3.202122
 H    -2.372029     0.939061    -2.891007
 C    -0.435788     0.041196    -3.396870
 H    -0.048495    -0.803919    -3.976345
 H     0.016797     0.996786    -3.679301
 H    -0.565890     1.351569    -1.207859
Ir    -0.518186    -0.282994    -1.259510
 C    -1.839925     1.369329     1.722804
 C    -3.739408     0.195314    -0.233275
 C    -2.216015    -1.374527     1.732662
 C     1.635131     0.443328     1.471249
 C     2.412155    -1.843691    -0.241722
 C     2.849580     0.951141    -1.090967
 P     1.634267    -0.185979    -0.293712
 P    -2.063307    -0.021379     0.479099
 C    -0.461699    -2.184150    -1.475276
 O    -0.408054    -3.317154    -1.659852
 H    -0.922288     1.049058     2.238443
 H    -2.646596     1.263566     2.460888
 C    -1.726922     2.815159     1.326356
 C    -2.691662     3.727309     1.778335
 H    -3.527672     3.363378     2.382520
 C    -0.659307     3.314705     0.569691
 H     0.102287     2.633648     0.193262
 C    -2.606619     5.083010     1.470359
 H    -3.374265     5.769985     1.834707
 C    -0.569292     4.669790     0.260572
 H     0.274385     5.027501    -0.334937
 C    -1.544000     5.560721     0.705198
 H    -1.473674     6.623373     0.461559
 C    -4.246753     1.492001    -0.383165
 H    -3.673709     2.344516    -0.020749
 C    -4.462386    -0.897036    -0.765655
 C    -3.966733    -2.310692    -0.702802
 H    -4.056068    -2.738128     0.308086
 H    -2.904270    -2.371083    -0.975500
 H    -4.535105    -2.950927    -1.391129
 C    -5.470125     1.724351    -1.005509
 H    -5.840104     2.747304    -1.106564
 C    -5.691792    -0.637911    -1.382458
 H    -6.255910    -1.481072    -1.790929
 C    -6.204454     0.651105    -1.499368
 H    -7.166721     0.814563    -1.990296
 C    -1.127116    -2.251554     1.804256
 H    -0.315153    -2.127516     1.085182
 C    -3.293354    -1.535679     2.636098
 C    -4.548903    -0.709154     2.618716
 H    -5.232613    -1.049634     1.824740
 H    -4.371927     0.354579     2.420043
 H    -5.077832    -0.797705     3.577857
 C    -1.066175    -3.275180     2.744341
 H    -0.203131    -3.944834     2.763441
 C    -3.210580    -2.572957     3.575415
 H    -4.038907    -2.706043     4.276902
 C    -2.118976    -3.434576     3.639296
 H    -2.097719    -4.231456     4.386652
 H     1.052024    -0.286319     2.052937
 H     1.002683     1.336885     1.384184
 C     2.916738     0.813780     2.150213
 C     3.540938     2.031638     1.845509
 H     3.073310     2.709374     1.127475
 C     3.520589    -0.021793     3.098682
 H     3.037344    -0.959717     3.380817
 C     4.751941     2.380638     2.436102
 H     5.225007     3.330395     2.175497
 C     4.730686     0.327337     3.694168
 H     5.185005    -0.341398     4.429173
 C     5.357617     1.525179     3.355669
 H     6.309108     1.798072     3.818090
 C     2.427369    -2.570986     0.954692
 H     2.067207    -2.112407     1.874770
 C     2.848529    -2.464832    -1.434522
 C     2.827664    -1.763807    -2.759845
 H     3.669905    -1.060750    -2.860800
 H     1.907844    -1.171553    -2.881981
 H     2.891639    -2.488676    -3.582910
 C     2.887763    -3.883553     1.001419
 H     2.890976    -4.425910     1.949882
 C     3.310961    -3.783387    -1.362577
 H     3.647318    -4.267492    -2.283438
 C     3.340254    -4.492073    -0.165057
 H     3.704082    -5.521973    -0.147843
 C     2.272937     2.006267    -1.811501
 H     1.185207     2.020554    -1.914912
 C     4.258323     0.880223    -0.969695
 C     5.002708    -0.205186    -0.247749
 H     5.075018    -1.118339    -0.859243
 H     4.523151    -0.492996     0.694062
 H     6.024038     0.128016    -0.018223
 C     3.047140     3.003430    -2.396044
 H     2.566951     3.815648    -2.946643
 C     5.015852     1.887961    -1.583379
 H     6.104629     1.842579    -1.494052
 C     4.432514     2.940406    -2.281463
 H     5.063254     3.707803    -2.737062
