 100
scf done:    -2904.737735
 C     1.898597    -3.047085    -0.470291
 H     2.783478    -3.075423    -1.113761
 H     2.110646    -3.276686     0.577581
 C     0.612388    -3.374639    -1.012308
 H     0.533154    -3.654920    -2.067147
 H    -0.138060    -3.851549    -0.375869
 H     0.204882    -1.638509     0.820199
Ir     0.729673    -1.238395    -0.672125
 C     1.200534     1.000605     2.088429
 O     3.377017     0.298737     0.826484
 O     1.720700     1.880780    -0.417250
 C    -1.571513     0.953800    -2.235221
 O    -2.644513    -1.191414    -1.137173
 O    -1.678614     0.597145     0.497549
 P    -1.299549    -0.251202    -0.878180
 P     1.759196     0.444736     0.438136
 C     1.392933    -0.880575    -2.450696
 O     1.786149    -0.677422    -3.509535
 H     0.278535     1.566755     1.899812
 H     1.964245     1.698526     2.466104
 C     0.938386    -0.122614     3.046236
 C     1.982710    -0.926354     3.518927
 H     3.003711    -0.720182     3.190365
 C    -0.367104    -0.396098     3.468053
 H    -1.188807     0.221417     3.098262
 C     1.725129    -1.982595     4.389207
 H     2.550190    -2.603641     4.746632
 C    -0.623163    -1.444763     4.348420
 H    -1.647768    -1.638377     4.674697
 C     0.421073    -2.245878     4.807765
 H     0.220073    -3.071735     5.494448
 C     4.250007    -0.344520    -0.014812
 C     4.367269     0.037349    -1.348488
 H     3.753432     0.859408    -1.724048
 C     5.020377    -1.385023     0.501720
 H     4.899660    -1.672067     1.547318
 C     5.247120    -0.635470    -2.205218
 C     5.333040    -0.237907    -3.649544
 H     4.355357    -0.356662    -4.142286
 H     5.622498     0.819583    -3.754925
 H     6.068304    -0.847272    -4.192857
 C     5.908070    -2.044218    -0.341316
 H     6.514912    -2.864478     0.049474
 C     6.016855    -1.679648    -1.683889
 H     6.709055    -2.215334    -2.338317
 C     2.001223     3.117456     0.104519
 C     3.288809     3.454165     0.516460
 H     4.081789     2.707649     0.443509
 C     0.960582     4.044650     0.183475
 H    -0.036981     3.751103    -0.148948
 C     3.556182     4.731301     1.025369
 C     4.948463     5.088788     1.458000
 H     5.346022     4.350721     2.171542
 H     5.636054     5.107098     0.597178
 H     4.981302     6.077735     1.935528
 C     1.223895     5.314906     0.684924
 H     0.416677     6.048376     0.750842
 C     2.509198     5.655469     1.105920
 H     2.704427     6.655314     1.501530
 H    -1.340766     0.374590    -3.144470
 H    -0.752639     1.679807    -2.107330
 C    -2.907581     1.626653    -2.326171
 C    -3.073413     2.938773    -1.870337
 H    -2.211121     3.484073    -1.478677
 C    -4.020903     0.946777    -2.834407
 H    -3.904901    -0.078651    -3.190512
 C    -4.324535     3.548771    -1.890221
 H    -4.436416     4.567827    -1.513627
 C    -5.271166     1.558621    -2.864956
 H    -6.130221     1.014142    -3.264960
 C    -5.429138     2.858944    -2.386265
 H    -6.412048     3.335831    -2.403352
 C    -2.775516    -2.448624    -0.601788
 C    -2.558998    -2.684581     0.752750
 H    -2.265812    -1.858790     1.404233
 C    -3.143895    -3.481700    -1.461904
 H    -3.299935    -3.263716    -2.519589
 C    -2.680343    -3.980278     1.269577
 C    -2.401201    -4.236026     2.721310
 H    -3.062345    -3.635002     3.365441
 H    -2.546405    -5.294286     2.978780
 H    -1.366759    -3.956720     2.975617
 C    -3.282699    -4.765847    -0.947639
 H    -3.566094    -5.586170    -1.611306
 C    -3.045861    -5.015937     0.404137
 H    -3.143302    -6.032123     0.794310
 C    -2.791720     1.317834     0.851309
 C    -4.087949     0.847349     0.657103
 H    -4.244641    -0.110032     0.161625
 C    -2.567048     2.539749     1.489294
 H    -1.543432     2.886308     1.642121
 C    -5.184289     1.616393     1.061862
 C    -6.575318     1.121072     0.797885
 H    -6.799179     1.170489    -0.280096
 H    -6.691826     0.071018     1.105887
 H    -7.327255     1.721611     1.328440
 C    -3.655922     3.297737     1.905969
 H    -3.486406     4.255061     2.404759
 C    -4.956022     2.846012     1.688151
 H    -5.805963     3.451883     2.011756
