  68
scf done:    -1837.561169
 C    -0.058373    -1.712335    -1.900107
 H    -0.075120    -2.789971    -1.704835
 H    -0.884478    -1.376757    -2.535098
 C     1.213107    -1.046142    -1.984065
 H     2.132750    -1.620768    -1.841663
 H     1.331516    -0.212227    -2.682905
 H    -0.424188     0.684999    -1.102727
Ir     0.224273    -0.482835    -0.151539
 C    -2.890564     1.081058     0.647012
 C    -2.981206    -1.805699     0.488171
 C    -1.790443    -0.517958     2.788075
 C     3.250188     0.879462     1.161278
 C     1.709835     2.685752    -0.473770
 C     0.910571     2.106129     2.244791
 P     1.490703     1.273104     0.693762
 P    -1.837209    -0.432109     0.938138
 C     0.963814    -1.854712     0.944919
 O     1.390241    -2.667959     1.644431
 H    -2.186552     1.922965     0.569816
 H    -3.517968     1.246048     1.535868
 C    -3.759428     0.985806    -0.572897
 C    -5.125672     0.707335    -0.444331
 H    -5.558229     0.598007     0.554529
 C    -3.228085     1.127170    -1.861722
 H    -2.160841     1.326843    -1.977930
 C    -5.939648     0.569318    -1.566780
 H    -7.003821     0.354368    -1.442176
 C    -4.039544     0.987573    -2.985163
 H    -3.604361     1.098957    -3.981305
 C    -5.398061     0.706802    -2.843484
 H    -6.033309     0.598266    -3.725734
 H    -3.148730    -1.699669    -0.595034
 C    -2.408598    -3.176481     0.807384
 H    -2.241567    -3.317357     1.887042
 H    -1.443430    -3.319870     0.299848
 H    -3.958572    -1.650373     0.974536
 H    -3.090749    -3.972523     0.472427
 H    -1.313497     0.422373     3.108265
 C    -3.101300    -0.745475     3.522731
 H    -3.535149    -1.728741     3.288216
 H    -3.856447     0.016927     3.274874
 H    -1.063058    -1.311504     3.025752
 H    -2.949049    -0.706981     4.612604
 H     3.176949     0.225366     2.044558
 H     3.741898     1.813228     1.477744
 C     4.042387     0.209561     0.079148
 C     4.645595     0.959396    -0.938377
 H     4.569303     2.049703    -0.922119
 C     4.183053    -1.182502     0.050362
 H     3.730678    -1.785090     0.840566
 C     5.348009     0.335869    -1.967239
 H     5.808620     0.940016    -2.752728
 C     4.888839    -1.808479    -0.974343
 H     4.984187    -2.896979    -0.977387
 C     5.468369    -1.052453    -1.991833
 H     6.018441    -1.543069    -2.798177
 H     2.095519     2.234170    -1.401210
 C     0.436214     3.466187    -0.752362
 H     0.055682     3.972180     0.148876
 H    -0.354467     2.798395    -1.125276
 H     2.499065     3.349868    -0.082560
 H     0.611209     4.240801    -1.514240
 H     0.890962     1.305852     3.003329
 C     1.675700     3.319684     2.748445
 H     1.683363     4.135817     2.010184
 H     2.721630     3.078449     2.989790
 H    -0.145909     2.359761     2.056681
 H     1.215813     3.716391     3.667064
