  92
scf done:    -2600.087014
 C     1.128876    -3.626257    -0.917231
 H     1.605512    -3.810237    -1.885700
 H     1.764109    -3.890719    -0.066764
 C    -0.294966    -3.783425    -0.793895
 H    -0.879454    -4.075298    -1.671828
 H    -0.709985    -4.152157     0.148162
 H     0.384937    -1.960705     0.879838
Ir     0.192917    -1.686236    -0.721351
 C     3.469384    -0.295329    -0.366222
 O     1.528387     1.230860    -1.474334
 O     1.405980     0.884876     1.023666
 C    -1.953077     1.172583    -0.488604
 O    -3.054895    -1.286242    -0.897755
 O    -2.162184    -0.701225     1.455292
 P    -1.734973    -0.606870    -0.142865
 P     1.665174    -0.007723    -0.371495
 C     0.028783    -1.482726    -2.637253
 O    -0.046010    -1.375207    -3.774885
 H     4.009171     0.644199    -0.164068
 H     3.651442    -0.552130    -1.424138
 C     3.933461    -1.427384     0.543570
 H     4.005580    -1.053088     1.575644
 H     3.168641    -2.223103     0.555807
 C     5.277948    -2.038987     0.139354
 H     6.000318    -1.210416     0.010369
 C     5.793581    -2.940563     1.255059
 H     5.903839    -2.386512     2.200242
 H     6.771430    -3.378067     1.000907
 H     5.093344    -3.772905     1.436906
 C     5.189047    -2.804032    -1.176679
 H     6.167880    -3.219417    -1.461746
 H     4.848967    -2.170255    -2.010045
 H     4.478461    -3.642604    -1.090475
 C     2.237519     2.402352    -1.430440
 C     3.311422     2.578736    -2.303521
 H     3.578183     1.767986    -2.984166
 C     1.854550     3.426940    -0.562140
 H     1.009999     3.266973     0.108361
 C     4.011838     3.783091    -2.299021
 H     4.850964     3.920826    -2.985001
 C     2.563791     4.626423    -0.564770
 H     2.263953     5.428322     0.114163
 C     3.644074     4.808404    -1.428095
 H     4.194735     5.751510    -1.427155
 C     2.150366     0.765238     2.167123
 C     3.206131     1.647853     2.396344
 H     3.427154     2.416577     1.652852
 C     1.822855    -0.217224     3.103289
 H     0.991791    -0.893621     2.893895
 C     3.955346     1.526283     3.565240
 H     4.786785     2.211858     3.745636
 C     2.578058    -0.326738     4.268280
 H     2.328087    -1.098683     4.999781
 C     3.647831     0.538294     4.500742
 H     4.238997     0.445898     5.414419
 H    -1.198686     1.685077     0.130913
 H    -2.939390     1.491478    -0.115869
 C    -1.739408     1.507028    -1.957423
 H    -0.742445     1.149114    -2.254124
 H    -2.466090     0.958706    -2.583712
 C    -1.824927     3.003053    -2.268447
 H    -1.142854     3.521145    -1.568452
 C    -1.327016     3.274177    -3.682793
 H    -0.291015     2.924988    -3.812182
 H    -1.354966     4.349021    -3.919862
 H    -1.951945     2.751254    -4.425977
 C    -3.228861     3.560042    -2.060601
 H    -3.263442     4.641069    -2.266448
 H    -3.588844     3.410338    -1.031040
 H    -3.945649     3.071631    -2.742905
 C    -4.350696    -1.111107    -0.497728
 C    -5.097259    -0.018614    -0.941962
 H    -4.641132     0.706876    -1.617032
 C    -4.927976    -2.066803     0.340517
 H    -4.319581    -2.911457     0.667492
 C    -6.418408     0.126938    -0.521959
 H    -6.999713     0.985486    -0.866496
 C    -6.250931    -1.916334     0.748329
 H    -6.700103    -2.663927     1.406443
 C    -6.998234    -0.815620     0.326213
 H    -8.034042    -0.697590     0.651689
 C    -2.563726     0.338692     2.257913
 C    -3.915717     0.512730     2.552477
 H    -4.651767    -0.163130     2.116233
 C    -1.603115     1.190396     2.805690
 H    -0.552966     1.036935     2.555750
 C    -4.301537     1.550617     3.399358
 H    -5.361319     1.685793     3.628459
 C    -2.001397     2.224997     3.648256
 H    -1.245605     2.888760     4.075026
 C    -3.350984     2.410639     3.947759
 H    -3.660938     3.222568     4.609362
