 102
scf done:    -3055.056593
 C     0.969409    -3.459566     0.000819
 H     1.819503    -3.696693    -0.646736
 H     1.166312    -3.642806     1.060571
 C    -0.367571    -3.589437    -0.497943
 H    -0.523346    -3.929536    -1.526380
 H    -1.176465    -3.873046     0.180472
 H    -0.402871    -1.652320     1.200317
Ir     0.145057    -1.489846    -0.329841
 C     1.192427     0.907431     2.091091
 O     3.132247    -0.417212     0.938007
 O     1.836432     1.267116    -0.536553
 C    -1.703177     1.024057    -1.998737
 O    -3.111842    -0.943590    -1.073103
 O    -2.134220     0.627862     0.722963
 P    -1.685465    -0.187464    -0.636629
 P     1.580908     0.039598     0.546488
 C     0.788360    -1.395005    -2.149135
 O     1.163485    -1.341321    -3.231381
 C     0.846565     2.256478     2.114980
 H     0.885806     2.827878     1.189111
 C     1.109666     0.151351     3.278361
 O     1.451623    -1.143228     3.181144
 C     1.158495    -2.021000     4.232048
 H     1.752397    -1.794105     5.134488
 H     1.419479    -3.025921     3.877421
 H     0.085689    -1.998097     4.489624
 C     0.442415     2.871428     3.298901
 H     0.185561     3.932677     3.304820
 C     0.682559     0.760610     4.462398
 H     0.608377     0.184787     5.385123
 C     0.359679     2.117393     4.465745
 H     0.037066     2.584826     5.399353
 C     3.768824    -1.427995     0.268878
 C     3.930501    -1.378773    -1.112261
 H     3.553748    -0.513937    -1.663083
 C     4.249748    -2.505915     1.009823
 H     4.094768    -2.512331     2.089646
 C     4.554864    -2.431896    -1.790975
 C     4.696588    -2.378209    -3.284140
 H     3.723567    -2.188504    -3.762965
 H     5.371383    -1.561880    -3.588401
 H     5.101852    -3.317637    -3.684965
 C     4.888329    -3.545060     0.342370
 H     5.266184    -4.400185     0.908117
 C     5.030978    -3.515436    -1.045788
 H     5.519911    -4.346888    -1.559829
 C     2.676553     2.344147    -0.517673
 C     3.690911     2.527636     0.419821
 H     3.860600     1.772979     1.188248
 C     2.458191     3.288541    -1.525715
 H     1.666439     3.102000    -2.253916
 C     4.491958     3.676157     0.373003
 C     5.575834     3.863443     1.394897
 H     5.160627     3.870120     2.415145
 H     6.307235     3.041035     1.350916
 H     6.117052     4.807373     1.241667
 C     3.255809     4.425259    -1.572638
 H     3.092538     5.166582    -2.358990
 C     4.263556     4.624216    -0.627735
 H     4.884428     5.522452    -0.671915
 C    -2.022200     0.549085    -3.274726
 H    -2.345600    -0.488214    -3.382387
 C    -1.283938     2.362202    -1.853788
 O    -0.968715     2.784556    -0.617967
 C    -0.954277     4.162990    -0.349997
 H    -0.066412     4.653886    -0.783038
 H    -0.925334     4.264725     0.741632
 H    -1.871730     4.648613    -0.722179
 C    -1.949297     1.373245    -4.394376
 H    -2.204699     0.981337    -5.380551
 C    -1.226671     3.194479    -2.978093
 H    -0.918528     4.234728    -2.870787
 C    -1.552924     2.697975    -4.237835
 H    -1.492883     3.360601    -5.104591
 C    -3.492107    -2.134037    -0.512268
 C    -3.460616    -2.328354     0.866314
 H    -3.121009    -1.516738     1.512347
 C    -3.921932    -3.149070    -1.366132
 H    -3.934066    -2.969698    -2.442472
 C    -3.833184    -3.560012     1.415426
 C    -3.749888    -3.768271     2.899845
 H    -2.706830    -3.687735     3.246881
 H    -4.330645    -3.006570     3.443136
 H    -4.127793    -4.757952     3.191795
 C    -4.310648    -4.368060    -0.821873
 H    -4.646292    -5.171641    -1.481773
 C    -4.259606    -4.577572     0.556540
 H    -4.554591    -5.544659     0.971555
 C    -3.074205     1.609624     0.863503
 C    -4.104898     1.823874    -0.048508
 H    -4.208610     1.169580    -0.914667
 C    -2.952699     2.408130     2.003515
 H    -2.134850     2.207781     2.697114
 C    -5.012433     2.873558     0.148805
 C    -6.111016     3.098829    -0.849590
 H    -5.703993     3.225012    -1.865144
 H    -6.797107     2.237382    -0.883349
 H    -6.702749     3.991892    -0.604872
 C    -3.859088     3.441305     2.203805
 H    -3.768230     4.072924     3.091254
 C    -4.877726     3.682868     1.279678
 H    -5.581711     4.502729     1.443409
