  98
scf done:    -2754.333198
 C     0.142179    -0.387926    -3.671373
 H    -0.352461    -1.293265    -4.036814
 H    -0.379132     0.536462    -3.937225
 C     1.572274    -0.366665    -3.549680
 H     2.146128    -1.254371    -3.834520
 H     2.094568     0.573287    -3.751217
 H     0.674022     1.167089    -1.685336
Ir     0.666128    -0.467801    -1.582091
 O    -2.424039    -1.440804    -1.339858
 C    -1.738314    -0.534671     1.113647
 C    -2.335676     1.266359    -1.096745
 O     1.574082     0.525974     1.562939
 C     2.832925    -1.658359     0.924884
 C     3.658528     0.846857    -0.109803
 P     2.148869    -0.157409     0.140810
 P    -1.429611    -0.254512    -0.663940
 C     0.655610    -2.394356    -1.518595
 O     0.630508    -3.540071    -1.475246
 C    -3.562063    -1.874855    -0.710234
 C    -4.756878    -1.166223    -0.821107
 H    -4.782154    -0.258737    -1.426839
 C    -3.496483    -3.037696     0.058672
 H    -2.547279    -3.571302     0.129449
 C    -5.904180    -1.595219    -0.142954
 C    -7.189923    -0.831554    -0.280500
 H    -7.015215     0.254821    -0.266996
 H    -7.687732    -1.067067    -1.235815
 H    -7.893807    -1.077174     0.527403
 C    -4.632908    -3.467426     0.734419
 H    -4.586412    -4.369335     1.349457
 C    -5.825715    -2.749802     0.642578
 H    -6.710596    -3.093174     1.185058
 C    -0.864623    -1.393526     1.788688
 H     0.018879    -1.781589     1.278494
 C    -2.878260    -0.060980     1.769886
 H    -3.581031     0.584286     1.238986
 C    -1.124295    -1.751412     3.106981
 H    -0.435901    -2.418225     3.631780
 C    -3.154973    -0.415589     3.093448
 C    -4.409234     0.074691     3.755918
 H    -4.530839     1.161423     3.629641
 H    -5.293923    -0.406146     3.307309
 H    -4.414392    -0.147881     4.832154
 C    -2.257533    -1.261123     3.754550
 H    -2.456709    -1.547414     4.791184
 C    -2.908522     1.327433    -2.373787
 H    -2.851306     0.458812    -3.033406
 C    -2.397488     2.380133    -0.254522
 H    -1.930576     2.346047     0.732913
 C    -3.558981     2.486125    -2.783271
 H    -4.012392     2.533558    -3.776383
 C    -3.067681     3.545112    -0.651892
 C    -3.167095     4.729783     0.264710
 H    -3.169871     4.421992     1.319213
 H    -2.309052     5.407721     0.129174
 H    -4.079884     5.310436     0.067186
 C    -3.645289     3.581236    -1.925545
 H    -4.175834     4.481718    -2.247705
 C     0.932730     1.716565     1.686776
 C     1.087416     2.763970     0.779084
 H     1.707601     2.628121    -0.107549
 C     0.123707     1.876086     2.817143
 H    -0.009788     1.031484     3.494897
 C     0.463000     3.996900     1.002421
 C     0.610516     5.094280    -0.010229
 H     1.652238     5.189299    -0.351399
 H    -0.002367     4.878728    -0.901714
 H     0.291242     6.065387     0.394003
 C    -0.484238     3.103915     3.047230
 H    -1.104613     3.237002     3.937002
 C    -0.308834     4.163793     2.155178
 H    -0.784012     5.127554     2.352481
 C     2.730670    -1.916610     2.295786
 H     2.243708    -1.190419     2.947685
 C     3.453705    -2.588055     0.087332
 H     3.520828    -2.379973    -0.985740
 C     3.246776    -3.106274     2.804684
 H     3.168392    -3.316725     3.874393
 C     3.973983    -3.784779     0.588074
 C     4.603928    -4.781674    -0.340032
 H     3.851879    -5.198238    -1.029470
 H     5.386422    -4.314556    -0.957593
 H     5.057158    -5.617799     0.210381
 C     3.860354    -4.030145     1.961185
 H     4.255655    -4.962707     2.373102
 C     4.093136     1.132283    -1.402742
 H     3.507176     0.771210    -2.249859
 C     4.385604     1.310530     0.993668
 H     4.032343     1.082444     2.003042
 C     5.258935     1.877358    -1.584895
 H     5.607919     2.102809    -2.595577
 C     5.546466     2.065070     0.823926
 C     6.314880     2.584989     2.004075
 H     6.239837     3.682489     2.072372
 H     5.935984     2.165538     2.946292
 H     7.384836     2.337579     1.925949
 C     5.973765     2.338434    -0.484791
 H     6.883986     2.925609    -0.638062
