  86
scf done:    -2445.794722
 C    -1.441623    -1.533525    -2.492114
 H    -2.223272    -2.259331    -2.242190
 H    -1.813263    -0.682833    -3.070952
 C    -0.094019    -1.994550    -2.690138
 H     0.120925    -3.064000    -2.592952
 H     0.548736    -1.486324    -3.414329
 H     0.087321     0.375531    -1.763832
Ir    -0.216567    -0.923249    -0.825091
 C    -3.232771     0.609421    -0.284399
 O    -1.762795     0.429983     1.938649
 O    -1.052046     2.136940     0.144821
 C     2.312262     1.167486     0.475887
 O     2.551883    -1.337968     1.147590
 O     3.009648    -0.818477    -1.343151
 P     1.940252    -0.513418    -0.154228
 P    -1.510332     0.569983     0.321559
 C    -0.690445    -2.496053     0.166920
 O    -1.034310    -3.444852     0.721230
 C    -3.648557     1.597053    -1.178685
 H    -2.953309     2.397854    -1.432899
 C    -4.097948    -0.476465    -0.034371
 O    -3.618435    -1.462561     0.745387
 C    -4.350297    -2.648962     0.883197
 H    -5.294332    -2.486579     1.431726
 H    -3.717034    -3.340534     1.452516
 H    -4.575441    -3.101094    -0.097979
 C    -4.910584     1.565028    -1.770097
 H    -5.212673     2.354446    -2.461214
 C    -5.368495    -0.509481    -0.618152
 H    -6.047102    -1.337985    -0.415357
 C    -5.772104     0.514821    -1.473753
 H    -6.767565     0.474292    -1.922530
 C    -0.921306    -0.356225     2.791257
 H    -0.147217    -0.834378     2.164568
 C    -1.770931    -1.422860     3.449579
 H    -2.211338    -2.084741     2.696132
 H    -2.586751    -0.956604     4.023399
 H    -1.160442    -2.028198     4.136420
 C    -0.235822     0.540264     3.802677
 H     0.367516     1.308873     3.303191
 H    -0.973969     1.035241     4.453346
 H     0.432518    -0.059881     4.438842
 C    -1.708600     3.257942     0.755144
 H    -2.784981     3.030423     0.851763
 C    -1.526767     4.438062    -0.179439
 H    -1.905151     4.217532    -1.188204
 H    -0.459355     4.692963    -0.258734
 H    -2.063799     5.317877     0.204654
 C    -1.137870     3.538593     2.130432
 H    -1.387898     2.729617     2.824165
 H    -0.043207     3.631993     2.072731
 H    -1.552192     4.478592     2.525758
 C     2.621901     1.387127     1.818527
 H     2.731473     0.520136     2.471626
 C     2.181619     2.277029    -0.381431
 O     1.955206     2.002448    -1.676968
 C     1.432612     2.994091    -2.517697
 H     0.521699     3.436643    -2.084883
 H     1.175367     2.494942    -3.460370
 H     2.169570     3.789824    -2.725289
 C     2.789783     2.677981     2.318798
 H     3.031666     2.829857     3.372763
 C     2.337934     3.573590     0.117348
 H     2.239065     4.433415    -0.546129
 C     2.642937     3.766946     1.463982
 H     2.769042     4.784320     1.842627
 C     3.235018    -2.586354     1.059947
 H     4.104783    -2.455519     0.390276
 C     2.367916    -3.697331     0.501296
 H     1.997353    -3.444018    -0.502422
 H     1.503194    -3.886984     1.152838
 H     2.956210    -4.624445     0.427976
 C     3.738864    -2.883599     2.457141
 H     4.377993    -2.066392     2.822195
 H     2.890000    -2.993766     3.149345
 H     4.321845    -3.816338     2.468844
 C     4.406267    -0.562706    -1.529761
 H     4.863869    -1.566156    -1.608211
 C     5.101890     0.179990    -0.402693
 H     4.902330    -0.275250     0.577160
 H     4.797443     1.234058    -0.354188
 H     6.187554     0.146691    -0.580392
 C     4.551402     0.144009    -2.862776
 H     4.063941    -0.438969    -3.656716
 H     4.065807     1.129024    -2.812498
 H     5.613118     0.275860    -3.120786
