  86
scf done:    -2073.244107
 C     3.388784    -1.576680     1.366050
 H     4.149240    -1.965507     0.679411
 H     3.788166    -0.849532     2.081242
 C     2.325618    -2.450371     1.793187
 H     2.305338    -3.481184     1.422816
 H     1.957977    -2.358855     2.819825
 H     1.345141    -0.087458     1.810924
Ir     1.549166    -0.968617     0.437086
 C     1.896663     2.597359     0.540295
 C     4.030193     1.139860    -0.716512
 C     1.394049     1.641231    -2.142498
 C    -1.610016     0.290855    -0.510464
 C    -1.512887    -2.671000    -0.316636
 C    -1.508197    -0.948476     2.176217
 P    -0.812204    -1.111159     0.450044
 P     2.162689     1.091222    -0.523175
 C     1.823467    -2.051923    -1.105018
 O     2.003258    -2.728446    -2.022045
 H     2.515056     2.413565     1.431781
 H     2.320573     3.467721     0.017663
 C     0.482094     2.887378     0.939630
 C    -0.370342     3.615252     0.097903
 H     0.000090     3.990920    -0.859090
 C    -0.012458     2.461599     2.176964
 H     0.652584     1.906193     2.843136
 C    -1.685392     3.872192     0.475809
 H    -2.345269     4.426129    -0.196020
 C    -1.321035     2.738181     2.588030
 C    -1.789293     2.340405     3.957659
 H    -2.883902     2.253902     4.003323
 H    -1.354644     1.380066     4.271470
 H    -1.485891     3.093018     4.704201
 C    -2.161031     3.433220     1.710099
 H    -3.191435     3.649452     2.005839
 H     4.324488     0.661604     0.232996
 C     4.488316     0.220292    -1.842779
 H     5.577309     0.065311    -1.782926
 H     4.007832    -0.766097    -1.785506
 H     4.275222     0.650365    -2.833717
 C     4.722951     2.497253    -0.786672
 H     4.488385     3.138746     0.074192
 H     5.814520     2.343465    -0.782063
 H     4.480058     3.052998    -1.702632
 H     0.397793     1.966296    -1.794504
 C     2.045119     2.831827    -2.837067
 H     1.398963     3.183145    -3.658118
 H     2.209569     3.685491    -2.163285
 H     3.014058     2.561641    -3.281973
 C     1.174081     0.485535    -3.111126
 H     0.624529    -0.337966    -2.635233
 H     0.589992     0.828785    -3.980062
 H     2.120480     0.070877    -3.486947
 H    -1.661096     1.126684     0.202303
 H    -0.823542     0.553328    -1.225540
 C    -2.895003     0.126489    -1.263101
 C    -2.891803    -0.493790    -2.520538
 H    -1.946784    -0.834948    -2.951577
 C    -4.113455     0.599309    -0.764890
 H    -4.126906     1.122109     0.194269
 C    -4.079525    -0.681953    -3.219876
 H    -4.064119    -1.179841    -4.192580
 C    -5.317265     0.425753    -1.455821
 C    -6.601775     0.969166    -0.899326
 H    -6.603077     0.955139     0.200412
 H    -6.755382     2.015433    -1.213011
 H    -7.469667     0.392629    -1.250628
 C    -5.287992    -0.237669    -2.687122
 H    -6.218753    -0.394560    -3.239091
 H    -1.339124    -2.475617    -1.390740
 C    -0.717985    -3.921602     0.051376
 H    -1.040187    -4.761520    -0.584802
 H     0.361454    -3.784266    -0.078795
 H    -0.888411    -4.214947     1.096844
 C    -3.004826    -2.923137    -0.111752
 H    -3.631759    -2.057673    -0.357908
 H    -3.325932    -3.757146    -0.756677
 H    -3.215064    -3.221042     0.926425
 H    -0.870877    -0.134402     2.557215
 C    -2.959498    -0.510032     2.313326
 H    -3.224035    -0.455417     3.382110
 H    -3.120606     0.489711     1.890803
 H    -3.664276    -1.202091     1.834046
 C    -1.204997    -2.189602     3.008043
 H    -0.167918    -2.523150     2.867249
 H    -1.352809    -1.969206     4.077589
 H    -1.875857    -3.023702     2.752664
