 112
scf done:    -2613.583330
 C     0.190335    -1.501843    -3.290346
 H     0.585689    -1.003422    -4.181557
 H     0.713612    -2.431470    -3.049730
 C    -1.218051    -1.407531    -3.004740
 H    -1.857568    -0.837232    -3.687533
 H    -1.730006    -2.266043    -2.557866
 H     0.039414    -1.603739    -0.721641
Ir    -0.119662    -0.214292    -1.588233
 C     3.304349    -0.898387    -1.047874
 C     2.636403     1.891803    -0.932103
 C     1.936357     0.125841     1.331181
 C    -1.490303     2.028341     0.871921
 C    -3.375536     0.696164    -0.939780
 C    -2.164349    -0.612221     1.423199
 P    -1.761326     0.445161    -0.048458
 P     1.919765     0.204926    -0.551734
 C    -0.182524     1.355627    -2.667931
 O    -0.179847     2.296826    -3.332669
 H     4.174085    -0.659815    -0.415577
 H     3.556238    -0.606560    -2.080080
 C     2.989238    -2.388795    -0.962112
 H     2.288369    -2.580679    -0.138217
 H     2.456228    -2.703202    -1.873614
 C     4.225307    -3.263154    -0.750086
 H     4.713648    -2.911501     0.177830
 C     3.814831    -4.714123    -0.535400
 H     3.129708    -4.808592     0.321632
 H     4.688548    -5.355379    -0.339933
 H     3.298064    -5.114703    -1.423767
 C     5.225164    -3.133579    -1.893165
 H     6.111294    -3.764566    -1.721757
 H     5.577781    -2.097761    -2.015213
 H     4.771759    -3.447164    -2.848882
 H     2.813682     1.857205    -2.018885
 H     1.815176     2.605078    -0.780689
 C     3.873199     2.293482    -0.189571
 C     5.121570     1.809731    -0.605015
 H     5.177468     1.199618    -1.509022
 C     3.812643     3.133782     0.944377
 C     2.532126     3.794000     1.372179
 H     1.713870     3.078670     1.543261
 H     2.175237     4.499277     0.604051
 H     2.674515     4.361691     2.301694
 C     6.285530     2.087236     0.104609
 H     7.242704     1.689141    -0.239725
 C     4.991876     3.398158     1.651148
 H     4.942491     4.040638     2.534455
 C     6.218431     2.873884     1.252023
 H     7.120771     3.094828     1.826673
 H     2.162018     1.145537     1.670485
 H     0.900576    -0.090275     1.618400
 C     2.895176    -0.825718     1.987529
 C     4.225772    -0.433603     2.181316
 H     4.534655     0.567572     1.871426
 C     2.488435    -2.109672     2.407283
 C     1.065178    -2.571265     2.270397
 H     0.651786    -2.371834     1.269675
 H     0.410414    -2.063113     2.998787
 H     0.980104    -3.650214     2.458274
 C     5.158913    -1.292056     2.755451
 H     6.191112    -0.960412     2.889628
 C     3.440251    -2.960037     2.981238
 H     3.127999    -3.958144     3.300722
 C     4.765501    -2.567285     3.152550
 H     5.485956    -3.256275     3.599682
 H    -0.609647     1.844465     1.511758
 H    -2.341952     2.181262     1.553188
 C    -1.251685     3.242780    -0.008670
 H    -0.348931     3.067726    -0.614561
 H    -2.073766     3.354660    -0.739110
 C    -1.097521     4.567143     0.745125
 H    -0.313243     4.425750     1.511583
 C    -0.632649     5.660925    -0.209408
 H     0.307762     5.386793    -0.712627
 H    -0.470823     6.614264     0.316861
 H    -1.384315     5.837381    -0.996498
 C    -2.377446     4.985142     1.461429
 H    -2.237767     5.935791     1.998687
 H    -2.707085     4.238513     2.199736
 H    -3.198692     5.131772     0.739652
 H    -3.189712     1.584247    -1.567533
 H    -3.414253    -0.148223    -1.638345
 C    -4.654216     0.833883    -0.167217
 C    -4.885482     1.968798     0.622015
 H    -4.137803     2.763405     0.644844
 C    -5.662289    -0.152410    -0.254929
 C    -5.523005    -1.350126    -1.148609
 H    -4.631845    -1.946636    -0.905879
 H    -5.439864    -1.051241    -2.206320
 H    -6.397232    -2.007892    -1.055680
 C    -6.059321     2.125178     1.354801
 H    -6.209124     3.021666     1.961107
 C    -6.835567     0.020961     0.488323
 H    -7.612480    -0.745669     0.424073
 C    -7.038660     1.137500     1.295169
 H    -7.965623     1.240573     1.864193
 H    -1.186274    -0.821420     1.887045
 H    -2.712127     0.033394     2.121524
 C    -2.918152    -1.895626     1.206622
 C    -2.447835    -2.850065     0.296574
 H    -1.537795    -2.629967    -0.265448
 C    -4.089440    -2.166843     1.946418
 C    -4.623307    -1.206433     2.970256
 H    -4.837322    -0.218280     2.535335
 H    -3.909037    -1.058367     3.796763
 H    -5.559447    -1.582627     3.404283
 C    -3.123154    -4.050561     0.091080
 H    -2.735863    -4.775066    -0.629168
 C    -4.757022    -3.376383     1.721566
 H    -5.668679    -3.584685     2.288341
 C    -4.289622    -4.313660     0.803921
 H    -4.834958    -5.248079     0.650913
