 100
scf done:    -2305.099986
 C     2.352177    -2.798466    -0.144284
 H     2.917724    -2.866061    -1.079753
 H     2.986587    -2.823124     0.746190
 C     1.047256    -3.398309    -0.067503
 H     0.650454    -3.911240    -0.950201
 H     0.736258    -3.856987     0.875933
 H     1.014664    -1.383899     1.523379
Ir     0.855910    -1.245216    -0.098852
 C     3.784364     0.689017    -0.403774
 O     1.400310     1.847186    -1.032603
 O     2.162641     1.578467     1.419340
 C    -1.926409     0.919547    -0.553546
 O    -2.553933    -1.565934    -0.075840
 O    -1.534977    -0.237763     1.909387
 P    -1.303845    -0.569293     0.313386
 P     2.009009     0.732787     0.023983
 C     0.681259    -1.159671    -2.016145
 O     0.570545    -1.098113    -3.156804
 H     4.170024     1.715313    -0.512698
 H     3.834678     0.202433    -1.391147
 C     4.598127    -0.062735     0.640831
 H     4.581904     0.525306     1.572649
 H     4.102532    -1.019998     0.873390
 C     6.048865    -0.340282     0.239775
 H     6.506862     0.622366    -0.058215
 C     6.827650    -0.879802     1.434156
 H     6.800255    -0.178910     2.282992
 H     7.883246    -1.061510     1.178957
 H     6.399003    -1.835921     1.778214
 C     6.146637    -1.297020    -0.943847
 H     7.196554    -1.484005    -1.217579
 H     5.639191    -0.907810    -1.839418
 H     5.685891    -2.268114    -0.697189
 C     2.006524     3.105792    -1.286354
 H     2.153876     3.647413    -0.334408
 H     2.998395     2.960207    -1.746492
 C     1.128263     3.895714    -2.231951
 H     1.686404     4.797514    -2.539394
 H     0.981608     3.294012    -3.145779
 C    -0.221742     4.293358    -1.655498
 H    -0.064401     4.921304    -0.760915
 H    -0.732471     3.384515    -1.303078
 C    -1.105224     5.026125    -2.650706
 H    -0.626483     5.950909    -3.011377
 H    -1.314901     4.399776    -3.532847
 H    -2.071533     5.304161    -2.204000
 C     1.358433     1.402904     2.579578
 H     0.555291     0.674956     2.383027
 H     2.006215     0.981965     3.365634
 C     0.795140     2.739306     3.015206
 H     0.363833     2.621857     4.024831
 H     1.629745     3.455294     3.116306
 C    -0.252278     3.293354     2.060964
 H    -1.134973     2.633394     2.085034
 H     0.139959     3.232164     1.033550
 C    -0.670639     4.720838     2.367041
 H    -1.084302     4.810839     3.384548
 H     0.186631     5.410079     2.300090
 H    -1.439136     5.078083     1.664227
 H    -1.310323     0.992678    -1.463578
 H    -1.600794     1.761401     0.076962
 C    -3.405697     0.998754    -0.910667
 H    -3.623516     0.223252    -1.661014
 H    -4.039473     0.743503    -0.044884
 C    -3.832373     2.368634    -1.445133
 H    -3.119764     2.656239    -2.241121
 C    -5.221934     2.288589    -2.066372
 H    -5.255020     1.551880    -2.883835
 H    -5.537785     3.261258    -2.474537
 H    -5.969416     1.984895    -1.314306
 C    -3.786897     3.442862    -0.362966
 H    -4.077470     4.426169    -0.764086
 H    -2.784193     3.552597     0.076739
 H    -4.486788     3.200182     0.454673
 C    -2.474758    -2.979661     0.019813
 H    -1.421692    -3.275514     0.156708
 H    -3.042110    -3.300321     0.909977
 C    -3.051684    -3.599764    -1.234751
 H    -3.076284    -4.694864    -1.094945
 H    -4.102645    -3.276986    -1.341301
 C    -2.274911    -3.250293    -2.495826
 H    -1.233365    -3.597481    -2.386203
 H    -2.213618    -2.153175    -2.581438
 C    -2.883186    -3.831153    -3.760811
 H    -2.927281    -4.931634    -3.718440
 H    -3.912645    -3.467857    -3.912697
 H    -2.298474    -3.555829    -4.651467
 C    -2.702202     0.329093     2.481201
 H    -2.373861     0.752286     3.445127
 H    -3.065838     1.171204     1.867916
 C    -3.807453    -0.684728     2.709335
 H    -4.655461    -0.157261     3.181371
 H    -4.168378    -1.049200     1.733537
 C    -3.376542    -1.860990     3.573856
 H    -3.062659    -1.487527     4.564821
 H    -2.474721    -2.313441     3.129798
 C    -4.462339    -2.911044     3.738298
 H    -5.366170    -2.487467     4.205451
 H    -4.764906    -3.327516     2.763495
 H    -4.124711    -3.749089     4.366520
