  84
scf done:    -1847.176284
 C     1.799475     0.271002    -2.634878
 H     1.769580     1.224174    -3.174055
 H     2.812238    -0.023280    -2.339884
 C     0.860881    -0.757017    -2.993784
 H     0.139030    -0.553233    -3.791969
 H     1.186699    -1.801134    -2.961422
 H     1.359135    -1.110743    -0.541481
Ir     0.344211     0.061212    -1.061450
 C     3.106482     0.618812     1.010809
 C     2.228420     2.957588    -0.286473
 C     0.750396     2.020081     2.080140
 C    -2.511822    -0.421781     1.125700
 C    -2.487899    -2.112566    -1.175119
 C    -0.532865    -2.534838     1.135602
 P    -1.300177    -1.256984    -0.001121
 P     1.507853     1.399771     0.487307
 C    -0.888793     1.313611    -1.806316
 O    -1.644018     2.021133    -2.316222
 H     3.669005     1.327060     1.641062
 H     3.651650     0.551064     0.055519
 C     3.055370    -0.757435     1.664902
 H     2.943241    -0.648323     2.754581
 H     2.163896    -1.298841     1.307626
 C     4.281610    -1.633670     1.386805
 H     5.185401    -1.035864     1.613178
 C     4.277973    -2.847228     2.309527
 H     4.283603    -2.550442     3.370141
 H     5.153568    -3.491332     2.134260
 H     3.376272    -3.459769     2.139365
 C     4.352849    -2.072383    -0.072115
 H     5.260940    -2.664530    -0.264080
 H     4.361176    -1.219959    -0.767581
 H     3.480321    -2.693065    -0.332952
 H     3.037019     2.526223    -0.903275
 C     1.286923     3.685329    -1.237320
 H     1.806976     4.545715    -1.688513
 H     0.951927     3.029892    -2.049582
 H     0.391404     4.073056    -0.729747
 C     2.854965     3.928836     0.709806
 H     3.540600     3.439726     1.417399
 H     3.434869     4.695736     0.171588
 H     2.086962     4.459646     1.293999
 H     1.486983     2.701748     2.536506
 C    -0.520400     2.801677     1.770896
 H    -1.035440     3.089145     2.701688
 H    -0.313843     3.723109     1.208639
 H    -1.212966     2.196581     1.166890
 C     0.493157     0.879685     3.058341
 H     1.421545     0.504681     3.507812
 H    -0.159423     1.219124     3.878794
 H    -0.001805     0.029891     2.566212
 H    -1.913115     0.055481     1.916634
 H    -3.123464    -1.190574     1.619615
 C    -3.399799     0.618186     0.461211
 H    -2.779767     1.308438    -0.130027
 H    -4.078812     0.133379    -0.262874
 C    -4.242974     1.442119     1.438691
 H    -3.546459     1.907489     2.161523
 C    -4.961212     2.562452     0.695770
 H    -4.249796     3.203109     0.151976
 H    -5.535527     3.200217     1.385563
 H    -5.668142     2.151351    -0.044170
 C    -5.229568     0.585087     2.223818
 H    -5.835000     1.200990     2.906790
 H    -4.724009    -0.179755     2.832630
 H    -5.924142     0.065646     1.541738
 H    -2.967031    -1.225837    -1.630004
 C    -1.801621    -2.865499    -2.307642
 H    -2.532270    -3.093247    -3.100283
 H    -0.991289    -2.268199    -2.741419
 H    -1.379344    -3.821780    -1.967579
 C    -3.576176    -2.963731    -0.530329
 H    -4.126974    -2.438416     0.263159
 H    -4.312330    -3.265857    -1.293022
 H    -3.160986    -3.889188    -0.103050
 H     0.257756    -1.927233     1.607112
 C    -1.405003    -3.100183     2.251065
 H    -0.807533    -3.797044     2.861426
 H    -1.781975    -2.320711     2.927852
 H    -2.267914    -3.662668     1.866821
 C     0.162146    -3.643385     0.353207
 H     0.740074    -3.239901    -0.491083
 H     0.856972    -4.189664     1.011465
 H    -0.561786    -4.374778    -0.036783
