 102
scf done:    -3054.920213
 C    -0.701276     1.056582    -3.186707
 H    -1.248058     0.378904    -3.850834
 H    -1.224476     2.001039    -3.009390
 C     0.735444     1.029036    -3.211028
 H     1.225447     0.332226    -3.900721
 H     1.297884     1.955444    -3.061349
 H     0.067139     1.737725    -0.892601
Ir     0.011313     0.178548    -1.363559
 C    -1.745218     1.383670     1.429873
 C    -3.449437     0.669909    -0.795197
 C    -2.421330    -1.319518     0.884149
 C     1.710274    -0.975829     1.626097
 C     3.349604    -0.884675    -0.673022
 C     2.577656     1.548310     0.603179
 P     1.879231    -0.052208     0.039368
 P    -1.874093     0.209849     0.024815
 C    -0.003496    -1.624438    -2.017109
 O     0.022376    -2.693105    -2.446626
 C    -1.486679     0.928545     2.724304
 H    -1.464516    -0.146349     2.913822
 C    -1.733753     2.776522     1.189483
 O    -1.944470     3.159638    -0.078920
 C    -1.740271     4.493713    -0.448835
 H    -2.472268     5.168870     0.028098
 H    -1.874440     4.536105    -1.536681
 H    -0.718880     4.828043    -0.198041
 C    -1.230302     1.817244     3.769006
 H    -1.017405     1.433490     4.768699
 C    -1.498266     3.670547     2.239530
 H    -1.498811     4.745459     2.057382
 C    -1.244841     3.185764     3.523019
 H    -1.051208     3.893716     4.332530
 C    -4.425632     1.486545    -0.207598
 H    -4.243461     1.938010     0.770756
 C    -3.718983     0.113270    -2.045108
 H    -2.961968    -0.516332    -2.518485
 C    -5.626940     1.738021    -0.852880
 H    -6.389714     2.378395    -0.405561
 C    -4.925142     0.349476    -2.703042
 H    -5.096479    -0.104559    -3.679272
 C    -5.888606     1.170759    -2.107751
 O    -7.081260     1.471890    -2.661835
 C    -7.395322     0.934189    -3.914643
 H    -7.414294    -0.170086    -3.896192
 H    -8.396817     1.301070    -4.173645
 H    -6.683707     1.261288    -4.693547
 C    -1.645550    -2.480609     0.828364
 H    -0.705916    -2.462227     0.276267
 C    -3.627007    -1.361633     1.593255
 H    -4.261635    -0.473762     1.642373
 C    -2.055452    -3.644484     1.464335
 H    -1.458254    -4.557071     1.425964
 C    -4.048063    -2.518654     2.241493
 H    -4.993771    -2.511451     2.783884
 C    -3.257358    -3.674580     2.179367
 O    -3.575388    -4.844606     2.767961
 C    -4.770746    -4.934824     3.490406
 H    -5.652280    -4.744083     2.853119
 H    -4.828784    -5.960401     3.876782
 H    -4.791264    -4.231847     4.342024
 C     1.693618    -0.363855     2.879318
 H     1.830397     0.716371     2.948671
 C     1.549302    -2.376607     1.561649
 O     1.552371    -2.904802     0.322253
 C     1.615394    -4.291833     0.141033
 H     2.516863    -4.716252     0.614924
 H     1.656351    -4.455982    -0.942366
 H     0.721981    -4.800094     0.542324
 C     1.513783    -1.108967     4.046224
 H     1.501469    -0.605622     5.015311
 C     1.392095    -3.129640     2.725953
 H     1.274421    -4.212158     2.671910
 C     1.366585    -2.489093     3.965131
 H     1.232146    -3.084218     4.871533
 C     4.371993    -1.400568     0.140061
 H     4.294486    -1.318006     1.227435
 C     3.474188    -1.011189    -2.053817
 H     2.677770    -0.617872    -2.688466
 C     5.477391    -2.022890    -0.416271
 H     6.275364    -2.431434     0.206930
 C     4.583709    -1.632104    -2.629753
 H     4.642711    -1.714327    -3.715257
 C     5.593237    -2.145146    -1.809992
 O     6.699524    -2.768944    -2.261723
 C     6.869266    -2.922117    -3.642550
 H     6.916555    -1.948457    -4.161745
 H     7.821967    -3.447448    -3.786899
 H     6.058917    -3.522657    -4.092527
 C     1.723158     2.489326     1.200109
 H     0.665298     2.255393     1.319830
 C     3.918858     1.894114     0.438771
 H     4.609556     1.194242    -0.034723
 C     2.195450     3.713916     1.638466
 H     1.528509     4.435868     2.113539
 C     4.406149     3.134847     0.857426
 H     5.459146     3.369234     0.699390
 C     3.546171     4.052118     1.467073
 O     3.918126     5.269960     1.910984
 C     5.253217     5.661038     1.761600
 H     5.556016     5.694848     0.699924
 H     5.336265     6.669861     2.185835
 H     5.942125     4.988782     2.303392
