 106
scf done:    -2983.166876
 C     1.854701    -3.221740     1.599200
 H     2.590254    -3.814318     1.043687
 H     2.228562    -2.899127     2.576838
 C     0.457279    -3.540052     1.452544
 H     0.171566    -4.359487     0.784404
 H    -0.211714    -3.437893     2.312183
 H     0.536639    -1.070909     1.956245
Ir     0.863261    -1.673423     0.474379
 C     3.234071     0.721127     1.795111
 C     3.883819    -0.227046    -0.720392
 C     1.696761     1.611447    -0.553693
 C    -1.240085    -0.376435    -1.959475
 C    -2.614718    -1.921124     0.036829
 C    -1.810017     0.747794     0.729184
 P    -1.211513    -0.754415    -0.130496
 P     2.363599     0.107256     0.250714
 C     1.181228    -2.468070    -1.234746
 O     1.331050    -2.964556    -2.263393
 H     3.883944    -0.134253     2.037777
 H     3.889150     1.544584     1.472237
 C     2.433887     1.116003     2.997328
 C     2.265435     2.464706     3.339447
 H     2.731897     3.239552     2.725354
 C     1.856930     0.143386     3.819059
 H     2.006884    -0.909626     3.573054
 C     1.516542     2.819580     4.457355
 H     1.395476     3.873781     4.718477
 C     1.080752     0.481803     4.932875
 C     0.425414    -0.595877     5.745760
 H    -0.372503    -1.087741     5.165278
 H     1.145285    -1.379379     6.027774
 H    -0.024484    -0.195595     6.665043
 C     0.917981     1.835801     5.243660
 H     0.323106     2.120968     6.115790
 C     4.319593    -1.546769    -0.903169
 H     3.709656    -2.362788    -0.509159
 C     4.690968     0.807141    -1.205045
 H     4.381708     1.847549    -1.072417
 C     5.508625    -1.823423    -1.560300
 H     5.850221    -2.849414    -1.708446
 C     5.885055     0.545357    -1.873558
 H     6.481316     1.378836    -2.245607
 C     6.300882    -0.779808    -2.057081
 O     7.433505    -1.138560    -2.689553
 C     8.266728    -0.139535    -3.206930
 H     8.645054     0.531157    -2.415297
 H     9.117809    -0.650584    -3.674469
 H     7.752638     0.469067    -3.971722
 C     1.714222     1.751027    -1.952463
 H     2.266590     1.033406    -2.564470
 C     0.965798     2.544111     0.185252
 H     0.909328     2.461078     1.269337
 C     1.022730     2.778348    -2.577918
 H     1.030283     2.884165    -3.664618
 C     0.254384     3.572265    -0.430221
 H    -0.328093     4.251370     0.192104
 C     0.268558     3.687367    -1.821771
 O    -0.430881     4.612469    -2.515026
 C    -1.273404     5.477482    -1.803394
 H    -0.705366     6.125698    -1.113273
 H    -1.779273     6.106888    -2.546466
 H    -2.031759     4.919640    -1.225817
 H    -0.377046     0.287916    -2.110056
 H    -0.970554    -1.347373    -2.404583
 C    -2.461330     0.183740    -2.620624
 C    -3.631977    -0.567852    -2.776702
 H    -3.667753    -1.601899    -2.428596
 C    -2.444872     1.502435    -3.094349
 H    -1.532976     2.091213    -2.975886
 C    -4.757886     0.009429    -3.361619
 H    -5.670478    -0.581854    -3.471371
 C    -3.562090     2.093040    -3.688287
 C    -3.508745     3.512823    -4.176169
 H    -2.495902     3.927093    -4.075106
 H    -3.805694     3.584069    -5.234350
 H    -4.199146     4.156480    -3.606181
 C    -4.729310     1.327981    -3.808938
 H    -5.619921     1.767167    -4.267746
 C    -3.846724    -1.587006     0.614328
 H    -3.998124    -0.592055     1.036828
 C    -2.455024    -3.212496    -0.474559
 H    -1.491057    -3.506759    -0.897611
 C    -4.886581    -2.505284     0.657513
 H    -5.847823    -2.251804     1.108590
 C    -3.494405    -4.138759    -0.454150
 H    -3.329545    -5.133288    -0.869191
 C    -4.725202    -3.786331     0.115407
 O    -5.790035    -4.608517     0.192495
 C    -5.682027    -5.903472    -0.327734
 H    -4.897753    -6.488668     0.184209
 H    -6.651388    -6.390956    -0.163297
 H    -5.466687    -5.895223    -1.411036
 C    -1.260021     1.100229     1.971206
 H    -0.474799     0.476275     2.402768
 C    -2.821713     1.564728     0.210335
 H    -3.311589     1.310601    -0.728024
 C    -1.672918     2.238139     2.646681
 H    -1.227226     2.510383     3.604308
 C    -3.236763     2.720621     0.870718
 H    -4.023347     3.328362     0.422259
 C    -2.652220     3.072031     2.092712
 O    -2.969457     4.176758     2.797379
 C    -3.944478     5.042116     2.289768
 H    -4.924515     4.544100     2.185291
 H    -4.040665     5.866330     3.007936
 H    -3.655033     5.457583     1.307458
