 102
scf done:    -3054.973996
 C     0.182030    -0.570637    -3.563218
 H     0.482604     0.237663    -4.237151
 H     0.912208    -1.381287    -3.503720
 C    -1.213703    -0.867131    -3.400049
 H    -1.943273    -0.283004    -3.972791
 H    -1.528585    -1.897891    -3.217436
 H    -0.071016    -1.461005    -1.207465
Ir    -0.449435     0.066818    -1.608510
 O     2.783944    -0.399397    -1.408130
 C     2.304448     2.090326    -0.512577
 C     1.835022    -0.136055     1.186884
 O    -1.736409     0.834348     1.458334
 C    -3.736392     0.077166    -0.246924
 C    -1.975314    -1.719936     1.066687
 P    -1.953904    -0.158791     0.119508
 P     1.588774     0.401112    -0.552158
 C    -0.962130     1.799165    -2.280737
 O    -1.305857     2.775058    -2.781634
 C     3.458476    -1.540500    -1.120180
 C     4.254633    -1.675978     0.018880
 H     4.325657    -0.841921     0.714855
 C     3.366664    -2.595899    -2.034195
 H     2.746813    -2.466116    -2.922337
 C     4.930120    -2.873426     0.281315
 C     5.741876    -3.002995     1.538752
 H     5.116999    -2.824614     2.428831
 H     6.191829    -4.001632     1.630329
 H     6.557424    -2.262399     1.567447
 C     4.055235    -3.777794    -1.788238
 H     3.984146    -4.601381    -2.503363
 C     4.825747    -3.925335    -0.633452
 H     5.353643    -4.863450    -0.442927
 C     1.430624     3.172700    -0.615661
 H     0.360360     2.974721    -0.675146
 C     3.688213     2.356636    -0.378987
 O     4.504716     1.308494    -0.185766
 C     5.891221     1.495391    -0.163956
 H     6.253601     1.957542    -1.098022
 H     6.333745     0.495446    -0.068298
 H     6.210277     2.115712     0.692087
 C     1.885605     4.490001    -0.623676
 H     1.169125     5.308390    -0.704168
 C     4.150823     3.677002    -0.413318
 H     5.217047     3.887370    -0.330808
 C     3.250594     4.734451    -0.538197
 H     3.631462     5.758646    -0.561707
 C     2.209379     0.771025     2.180234
 H     2.375701     1.814622     1.907196
 C     1.624073    -1.484669     1.550505
 O     1.278553    -2.313103     0.562379
 C     1.235202    -3.697494     0.775304
 H     2.215341    -4.075052     1.112910
 H     0.998756    -4.145434    -0.197386
 H     0.450437    -3.969205     1.499062
 C     2.374569     0.372371     3.505961
 H     2.667913     1.101987     4.263668
 C     1.805697    -1.892495     2.876690
 H     1.646610    -2.934635     3.152488
 C     2.174504    -0.962755     3.846322
 H     2.308409    -1.292825     4.879616
 C    -1.510545     2.168562     1.379693
 C    -0.567993     2.705446     2.259869
 H    -0.055769     2.023003     2.939962
 C    -2.189875     3.000137     0.486681
 H    -2.938977     2.586909    -0.189313
 C    -0.269226     4.067686     2.248895
 C     0.820486     4.614853     3.122927
 H     1.012832     3.963272     3.987354
 H     1.760003     4.695806     2.549053
 H     0.577837     5.621277     3.495068
 C    -1.903129     4.364712     0.483258
 H    -2.430487     5.016546    -0.217304
 C    -0.955722     4.897917     1.351973
 H    -0.736941     5.968805     1.331628
 C    -4.124819     0.279116    -1.570191
 H    -3.340833     0.278262    -2.331311
 C    -4.725272     0.053044     0.761311
 O    -4.304772    -0.155186     2.017498
 C    -5.231953    -0.244254     3.059451
 H    -5.788327     0.699647     3.195781
 H    -4.654729    -0.452460     3.969026
 H    -5.952540    -1.065128     2.897656
 C    -5.462591     0.463872    -1.915630
 H    -5.744644     0.622028    -2.958337
 C    -6.069430     0.241377     0.417975
 H    -6.842124     0.231591     1.186994
 C    -6.427991     0.446313    -0.914038
 H    -7.481886     0.594084    -1.163404
 C    -1.584373    -1.790245     2.400440
 H    -1.241157    -0.879824     2.891998
 C    -2.430646    -2.885613     0.420462
 O    -2.796209    -2.736649    -0.864531
 C    -3.326352    -3.820861    -1.570544
 H    -2.595970    -4.643318    -1.665617
 H    -3.574291    -3.447227    -2.571784
 H    -4.244021    -4.207673    -1.093946
 C    -1.649323    -2.995819     3.101947
 H    -1.340992    -3.033078     4.148945
 C    -2.501516    -4.093923     1.120471
 H    -2.862721    -4.998005     0.629825
 C    -2.113935    -4.139779     2.460853
 H    -2.177861    -5.087210     3.001984
