 118
scf done:    -3512.641682
 C    -0.086131    -2.215237    -1.691379
 H    -0.920297    -2.300093    -2.389264
 H     0.894393    -2.371576    -2.144742
 C    -0.274536    -2.549683    -0.307135
 H    -1.272565    -2.870677     0.010859
 H     0.531011    -3.042853     0.244407
 H    -0.018379     0.089202     1.050066
Ir    -0.083834    -0.396522    -0.503439
 C     2.862741    -1.377196     1.235552
 C     3.636103    -0.186364    -1.121770
 C     2.336587     1.525898     0.814992
 C    -2.432890     1.428070     1.349779
 C    -3.370583     0.351120    -1.282070
 C    -3.157795    -1.309246     1.133068
 P    -2.280753     0.009706     0.170724
 P     2.179974    -0.149645     0.036076
 C    -0.024337     1.006869    -1.773062
 O     0.020991     1.821490    -2.597118
 C     3.263135    -1.114206     2.545088
 H     3.237901    -0.091718     2.912562
 C     3.008999    -2.695375     0.751585
 O     2.755232    -2.876780    -0.556516
 C     2.819742    -4.157449    -1.111690
 H     3.831371    -4.589916    -1.019952
 H     2.570126    -4.046762    -2.173896
 H     2.084885    -4.837238    -0.646547
 C     3.702515    -2.131260     3.392501
 H     3.998787    -1.894584     4.416857
 C     3.428557    -3.724444     1.601854
 H     3.510783    -4.745672     1.229616
 C     3.761645    -3.440028     2.924744
 H     4.088946    -4.249480     3.582001
 C     4.933356     0.041115    -0.628874
 O     5.026044     0.372374     0.672541
 C     6.276517     0.495239     1.280550
 H     6.085394     0.693306     2.343108
 H     6.868405    -0.432253     1.191798
 H     6.858469     1.334641     0.860478
 C     3.489889    -0.429613    -2.498855
 O     2.239401    -0.579478    -2.944686
 C     1.966388    -0.710793    -4.305153
 H     0.872908    -0.759407    -4.387868
 H     2.403703    -1.633068    -4.728667
 H     2.332780     0.157113    -4.881552
 C     4.606012    -0.495255    -3.345725
 H     4.480874    -0.695012    -4.409360
 C     6.056106    -0.034747    -1.464588
 H     7.057571     0.130434    -1.069152
 C     5.876728    -0.306377    -2.815564
 H     6.748135    -0.364094    -3.472658
 C     2.821143     2.614807     0.055567
 O     3.084508     2.366863    -1.237399
 C     3.573207     3.368493    -2.076296
 H     3.713974     2.900838    -3.059235
 H     2.858603     4.204571    -2.174460
 H     4.543725     3.761341    -1.725985
 C     1.819941     1.825356     2.093514
 O     1.206616     0.831069     2.756536
 C     0.389094     1.125057     3.859888
 H    -0.195912     0.220184     4.058122
 H    -0.309714     1.944191     3.632912
 H     0.987500     1.382643     4.751716
 C     1.936651     3.110528     2.645695
 H     1.554800     3.310850     3.645535
 C     2.970333     3.891066     0.611183
 H     3.390628     4.704097     0.020699
 C     2.541967     4.121687     1.913780
 H     2.653740     5.115914     2.353016
 C    -3.117728     1.259371     2.552008
 H    -3.627165     0.312762     2.736483
 C    -1.797466     2.671721     1.119364
 O    -1.224558     2.852786    -0.073619
 C    -0.517172     4.030708    -0.342164
 H    -1.182530     4.913175    -0.331290
 H    -0.097268     3.903747    -1.346837
 H     0.303448     4.183371     0.376255
 C    -3.167897     2.259671     3.525746
 H    -3.717768     2.088615     4.453522
 C    -1.825213     3.668001     2.101742
 H    -1.314361     4.614927     1.929296
 C    -2.511542     3.461810     3.299436
 H    -2.528771     4.254948     4.051401
 C    -3.558693    -0.715038    -2.185238
 O    -3.153263    -1.918737    -1.742077
 C    -3.368094    -3.063374    -2.514557
 H    -2.967190    -3.903751    -1.934889
 H    -4.444041    -3.227306    -2.703457
 H    -2.838004    -3.014207    -3.481229
 C    -3.934593     1.592438    -1.617517
 O    -3.909924     2.554619    -0.681565
 C    -4.184153     3.878431    -1.023372
 H    -3.963981     4.477947    -0.129236
 H    -5.244802     4.027538    -1.294361
 H    -3.549647     4.225618    -1.857580
 C    -4.537517     1.793440    -2.870332
 H    -4.941927     2.769827    -3.134686
 C    -4.173774    -0.530503    -3.425476
 H    -4.292618    -1.362300    -4.118662
 C    -4.638595     0.737313    -3.764169
 H    -5.107053     0.897970    -4.738137
 C    -2.435063    -2.048476     2.094439
 O    -1.256758    -1.544342     2.471960
 C    -0.270506    -2.375884     3.026470
 H     0.677226    -1.831236     2.936612
 H    -0.476827    -2.593870     4.089582
 H    -0.184581    -3.321522     2.469719
 C    -4.496399    -1.690344     0.898554
 O    -5.242736    -0.860841     0.151999
 C    -6.465532    -1.284492    -0.373071
 H    -6.786278    -0.502961    -1.074368
 H    -7.234119    -1.402751     0.411294
 H    -6.366249    -2.237466    -0.921462
 C    -5.022573    -2.865164     1.450555
 H    -6.048693    -3.163822     1.239017
 C    -2.954741    -3.226555     2.649485
 H    -2.367066    -3.800574     3.365212
 C    -4.235918    -3.632225     2.303288
 H    -4.647293    -4.547808     2.735513
