  98
scf done:    -2754.324887
 C     0.526639    -4.118845     0.306793
 H     1.088505    -4.705554    -0.428835
 H     0.939642    -4.191557     1.317607
 C    -0.900929    -3.995676     0.138861
 H    -1.375076    -4.486164    -0.718276
 H    -1.539350    -3.984767     1.028034
 H    -0.078415    -1.839905     1.332081
Ir     0.038060    -2.107475    -0.286572
 O     1.105250     0.854403     0.622115
 C     3.153669    -0.880649     1.060978
 C     2.466196     0.119264    -1.603392
 O    -1.036596     0.642445    -1.680102
 C    -3.135676    -1.125716    -1.436092
 C    -2.207065     0.497466     0.830582
 P    -1.605672    -0.507240    -0.588522
 P     1.716195    -0.558499    -0.053686
 C     0.260784    -2.487095    -2.154189
 O     0.417719    -2.707973    -3.269684
 C     1.432723     1.409347     1.826139
 C     2.186581     2.581831     1.840736
 H     2.540595     2.986864     0.891105
 C     0.965130     0.844552     3.014725
 H     0.376790    -0.075175     2.980797
 C     2.486622     3.218118     3.049581
 C     3.271353     4.497862     3.049948
 H     4.007866     4.513274     2.233283
 H     2.605275     5.364908     2.903948
 H     3.801329     4.648010     4.001383
 C     1.269915     1.472651     4.219836
 H     0.913496     1.038840     5.157171
 C     2.022118     2.646165     4.240025
 H     2.254145     3.125652     5.194546
 H     2.713456    -1.316186     1.973116
 H     3.594999     0.086542     1.347134
 C     4.209920    -1.784126     0.485624
 C     5.559192    -1.417088     0.572536
 H     5.827966    -0.479888     1.068187
 C     3.889086    -3.001471    -0.129769
 H     2.841664    -3.304653    -0.193866
 C     6.560649    -2.233458     0.050448
 H     7.606558    -1.927803     0.132550
 C     4.889921    -3.815040    -0.657195
 H     4.617774    -4.758552    -1.136660
 C     6.228361    -3.434875    -0.572758
 H     7.010882    -4.075113    -0.986756
 H     1.630844     0.152605    -2.317328
 H     3.167235    -0.660275    -1.944746
 C     3.113964     1.462294    -1.478939
 C     4.430747     1.605292    -1.025137
 H     5.023415     0.712792    -0.813239
 C     2.384090     2.618809    -1.782590
 H     1.359324     2.526598    -2.146049
 C     4.992429     2.869428    -0.852406
 H     6.021814     2.959752    -0.496694
 C     2.944563     3.882996    -1.615954
 H     2.353289     4.769343    -1.859233
 C     4.249862     4.014437    -1.140916
 H     4.691253     5.005046    -1.007622
 C    -1.308657     1.970071    -1.822561
 C    -0.917571     2.890243    -0.849843
 H    -0.406883     2.523958     0.039917
 C    -1.888475     2.410524    -3.015687
 H    -2.157803     1.678365    -3.779229
 C    -1.115260     4.261493    -1.040770
 C    -0.673207     5.227944     0.019605
 H    -1.302276     5.141981     0.920311
 H     0.361993     5.020888     0.333186
 H    -0.728144     6.267932    -0.331144
 C    -2.087113     3.774647    -3.209549
 H    -2.536297     4.126148    -4.141550
 C    -1.710996     4.694174    -2.230415
 H    -1.868181     5.762645    -2.398085
 H    -3.173397    -2.193588    -1.177288
 H    -2.869183    -1.075141    -2.505633
 C    -4.457080    -0.475475    -1.152565
 C    -4.708764     0.866181    -1.466032
 H    -3.936358     1.468296    -1.949153
 C    -5.474260    -1.218078    -0.541070
 H    -5.287915    -2.261771    -0.275471
 C    -5.937424     1.449198    -1.163742
 H    -6.110922     2.498689    -1.414523
 C    -6.704291    -0.639154    -0.243254
 H    -7.479001    -1.236612     0.242835
 C    -6.940159     0.699851    -0.549797
 H    -7.903062     1.158291    -0.312162
 H    -2.644277     1.423979     0.431128
 H    -1.300681     0.776162     1.390227
 C    -3.213855    -0.183050     1.718749
 C    -3.036523    -1.491780     2.183987
 H    -2.138695    -2.043482     1.897809
 C    -4.365045     0.513602     2.103305
 H    -4.525235     1.528948     1.731992
 C    -3.998226    -2.091532     2.995279
 H    -3.846099    -3.116834     3.341882
 C    -5.320881    -0.081242     2.921098
 H    -6.216911     0.478310     3.199930
 C    -5.144364    -1.390515     3.366167
 H    -5.897543    -1.862630     4.001648
