 102
scf done:    -3055.065689
 C    -1.134615     1.074841    -3.099622
 H    -1.749629     0.333446    -3.619351
 H    -1.660175     2.013737    -2.904913
 C     0.285130     1.097914    -3.304745
 H     0.742025     0.373514    -3.986228
 H     0.809023     2.057465    -3.272266
 H    -0.152522     1.879816    -0.893918
Ir    -0.148095     0.312721    -1.336520
 C    -1.569288     1.083976     1.842348
 O    -3.277859     0.396723    -0.042680
 O    -1.740081    -1.445719     0.920901
 C     1.980182    -1.094024     1.153693
 O     3.126271    -0.055947    -1.116139
 O     2.250951     1.439121     0.789769
 P     1.792723     0.152526    -0.161083
 P    -1.684197     0.100632     0.318033
 C    -0.240488    -1.512718    -1.965637
 O    -0.345119    -2.586658    -2.355845
 C    -1.283269     0.475272     3.066420
 H    -1.181490    -0.610143     3.110505
 C    -1.655719     2.490262     1.775287
 O    -1.904356     3.018757     0.568649
 C    -1.625020     4.376085     0.333153
 H    -2.332079     5.036126     0.864277
 H    -1.738691     4.529522    -0.747103
 H    -0.590805     4.624883     0.621941
 C    -1.119569     1.235250     4.223212
 H    -0.905890     0.743108     5.173861
 C    -1.484929     3.253415     2.935264
 H    -1.549971     4.340626     2.891039
 C    -1.231382     2.621237     4.150964
 H    -1.106110     3.228712     5.050616
 C    -3.820563     0.039294    -1.252039
 C    -3.679848    -1.252943    -1.752805
 H    -3.136758    -2.000631    -1.173544
 C    -4.529492     1.025567    -1.952290
 C    -4.657379     2.401768    -1.378816
 H    -5.292671     2.396491    -0.478160
 H    -3.676221     2.778649    -1.057614
 H    -5.098332     3.095161    -2.107880
 C    -4.234486    -1.577704    -2.988844
 H    -4.114303    -2.588619    -3.384526
 C    -5.083991     0.669822    -3.184011
 H    -5.634271     1.427134    -3.749159
 C    -4.936137    -0.614038    -3.708421
 H    -5.372357    -0.860279    -4.679050
 C    -2.745531    -2.118768     1.566102
 C    -3.831327    -1.495109     2.179935
 H    -3.929746    -0.411162     2.147160
 C    -2.604113    -3.517437     1.574920
 C    -1.426966    -4.150102     0.900067
 H    -1.395100    -3.897919    -0.171618
 H    -0.483265    -3.781631     1.330844
 H    -1.457685    -5.243769     1.000918
 C    -4.795147    -2.272954     2.819719
 H    -5.646416    -1.781939     3.296790
 C    -3.584683    -4.266972     2.227244
 H    -3.486573    -5.355956     2.242767
 C    -4.675290    -3.658944     2.847761
 H    -5.430515    -4.268939     3.348096
 C     1.916454    -0.745322     2.503567
 H     1.836777     0.307800     2.770106
 C     2.072455    -2.454431     0.801371
 O     2.091154    -2.722320    -0.515774
 C     2.217612    -4.049685    -0.952024
 H     3.181039    -4.482553    -0.634163
 H     2.176806    -4.020818    -2.046909
 H     1.388686    -4.676479    -0.583493
 C     1.956063    -1.720390     3.498583
 H     1.903232    -1.429721     4.549593
 C     2.137770    -3.432474     1.797534
 H     2.233162    -4.485356     1.533424
 C     2.074601    -3.059167     3.139389
 H     2.118468    -3.833166     3.909330
 C     4.315998    -0.636923    -0.767042
 C     4.949444    -0.367489     0.444009
 H     4.494287     0.336062     1.141687
 C     4.872146    -1.514498    -1.711467
 C     4.171336    -1.742756    -3.014605
 H     3.100349    -1.930738    -2.853077
 H     4.232165    -0.848111    -3.655348
 H     4.613248    -2.586672    -3.562198
 C     6.155144    -1.000482     0.741920
 H     6.650859    -0.794216     1.693246
 C     6.082194    -2.131142    -1.386312
 H     6.530564    -2.820772    -2.107108
 C     6.721270    -1.886713    -0.170190
 H     7.665322    -2.385703     0.059845
 C     2.202955     2.760268     0.451611
 C     2.287312     3.202590    -0.867699
 H     2.390950     2.474664    -1.673012
 C     2.112709     3.665018     1.522312
 C     2.086261     3.155418     2.928954
 H     1.985027     3.980629     3.646683
 H     1.246075     2.463560     3.085448
 H     3.009730     2.602528     3.164810
 C     2.240738     4.568613    -1.139110
 H     2.300694     4.911578    -2.174551
 C     2.077131     5.028587     1.219677
 H     2.010952     5.745193     2.043216
 C     2.129571     5.486080    -0.097363
 H     2.098432     6.557744    -0.306151
