 118
scf done:    -3512.735960
 C     1.204874    -2.923574     1.618002
 H     1.659443    -3.689771     0.979705
 H     1.867378    -2.578571     2.417521
 C    -0.214166    -2.958477     1.852125
 H    -0.807882    -3.749682     1.384080
 H    -0.609646    -2.639569     2.821430
 H     0.481696    -0.518188     1.942289
Ir     0.246209    -1.320630     0.548750
 O     2.815135     0.614380     1.214492
 C     3.299303    -0.213136    -1.297758
 C     1.384078     1.774088    -0.778569
 O    -2.274934    -0.323842    -1.294646
 C    -3.192716    -0.918476     1.193579
 C    -1.810928     1.643698     0.607460
 P    -1.762486    -0.172347     0.288912
 P     1.914712     0.140665    -0.113641
 C    -0.068912    -2.276437    -1.086904
 O    -0.306965    -2.822505    -2.072968
 C     3.985904     0.057868     1.592525
 C     4.293926    -1.284929     1.367648
 H     3.556997    -1.925166     0.878257
 C     4.906829     0.889073     2.239761
 H     4.640693     1.935478     2.396814
 C     5.526359    -1.811139     1.767950
 C     5.844233    -3.249388     1.475383
 H     5.019599    -3.910184     1.784645
 H     5.993782    -3.402917     0.393502
 H     6.758590    -3.576899     1.990205
 C     6.125149     0.363152     2.653793
 H     6.845771     1.007909     3.163912
 C     6.440687    -0.975936     2.416469
 H     7.405494    -1.376172     2.738593
 C     4.267707     0.786757    -1.541524
 O     4.137304     1.924914    -0.845458
 C     5.064541     2.957473    -0.995759
 H     4.732018     3.765420    -0.331623
 H     6.077835     2.640190    -0.694376
 H     5.093205     3.338393    -2.031295
 C     3.475104    -1.458011    -1.934177
 O     2.621656    -2.438823    -1.604857
 C     2.781164    -3.718896    -2.143925
 H     1.986688    -4.337308    -1.708905
 H     3.762684    -4.150877    -1.881505
 H     2.666524    -3.720277    -3.241535
 C     4.524447    -1.667084    -2.840264
 H     4.642993    -2.627296    -3.339247
 C     5.319808     0.581061    -2.442652
 H     6.054925     1.362728    -2.627508
 C     5.427155    -0.642140    -3.089651
 H     6.245559    -0.807455    -3.794649
 C     1.497939     3.039830    -0.172394
 O     1.982174     3.096723     1.082017
 C     2.163152     4.337000     1.693642
 H     2.577247     4.133627     2.690220
 H     2.874688     4.973727     1.136777
 H     1.211634     4.884361     1.808129
 C     0.812764     1.699236    -2.061363
 O     0.716430     0.457518    -2.571830
 C    -0.080372     0.226928    -3.702699
 H    -0.114663    -0.861156    -3.833371
 H     0.355837     0.687322    -4.606388
 H    -1.104535     0.599700    -3.543632
 C     0.415321     2.845674    -2.757776
 H    -0.014127     2.768621    -3.755672
 C     1.121733     4.191855    -0.875216
 H     1.217205     5.173832    -0.415030
 C     0.593445     4.084346    -2.156898
 H     0.303329     4.991506    -2.693294
 C    -3.549826    -0.405577    -1.746700
 C    -4.618032     0.275377    -1.162621
 H    -4.445671     0.917354    -0.297080
 C    -3.762459    -1.218642    -2.864306
 H    -2.909621    -1.752832    -3.286876
 C    -5.912763     0.141429    -1.675534
 C    -7.052131     0.849733    -1.000162
 H    -6.828055     1.917354    -0.848968
 H    -7.980374     0.774644    -1.584042
 H    -7.243692     0.417818    -0.004042
 C    -5.044935    -1.337593    -3.387560
 H    -5.214290    -1.970458    -4.262594
 C    -6.117547    -0.667034    -2.797545
 H    -7.124160    -0.775038    -3.209759
 C    -4.002948    -0.284544     2.156548
 O    -3.927969     1.054714     2.234954
 C    -4.471355     1.731826     3.329410
 H    -4.144528     2.775946     3.235172
 H    -5.575315     1.700021     3.330090
 H    -4.098801     1.322379     4.283928
 C    -3.442045    -2.286950     0.938921
 O    -2.778930    -2.818881    -0.097185
 C    -2.997109    -4.149291    -0.469566
 H    -2.349124    -4.331948    -1.335236
 H    -4.048408    -4.317550    -0.759615
 H    -2.724295    -4.849950     0.338742
 C    -4.353168    -3.019970     1.706817
 H    -4.518994    -4.078157     1.511369
 C    -4.900884    -1.017160     2.944477
 H    -5.501012    -0.519004     3.704827
 C    -5.054566    -2.378913     2.720126
 H    -5.759562    -2.948650     3.330245
 C    -1.387814     2.048569     1.886350
 O    -1.178838     1.056527     2.770137
 C    -0.209468     1.227381     3.773371
 H    -0.024797     0.232747     4.197467
 H     0.731462     1.611668     3.347976
 H    -0.566398     1.898570     4.574418
 C    -2.147312     2.649186    -0.322583
 O    -2.532256     2.268983    -1.552975
 C    -3.079710     3.202616    -2.435347
 H    -3.413143     2.635080    -3.313872
 H    -2.335441     3.953647    -2.751163
 H    -3.950333     3.718545    -1.993750
 C    -2.081647     4.001568     0.041088
 H    -2.343400     4.773770    -0.680031
 C    -1.271998     3.396301     2.235378
 H    -0.935603     3.679285     3.232769
 C    -1.638302     4.362622     1.306157
 H    -1.576388     5.421399     1.570583
