 100
scf done:    -2456.449561
 C     1.025668    -1.591322    -3.290914
 H     1.726426    -1.090544    -3.968142
 H     1.360019    -2.588717    -2.989740
 C    -0.380901    -1.340944    -3.461409
 H    -0.690907    -0.652944    -4.255555
 H    -1.099156    -2.147876    -3.288286
 H    -0.064195    -1.876770    -1.006732
Ir     0.287405    -0.408013    -1.645666
 C     2.498924    -1.916166     0.715980
 C     3.648553     0.236122    -0.682344
 C     1.821825     0.837486     1.356203
 C    -1.716842     2.005358     0.057231
 C    -3.216246    -0.044948    -1.220094
 C    -1.771917    -0.652545     1.188230
 P    -1.588294     0.223642    -0.408185
 P     2.005642    -0.320804    -0.059661
 C     0.625757     1.303714    -2.427941
 O     0.794895     2.353004    -2.872648
 H     3.302345    -1.700162     1.441814
 H     2.971804    -2.465379    -0.113574
 C     1.390119    -2.745840     1.345407
 H     0.796561    -2.133493     2.044308
 H     0.680875    -3.047647     0.556984
 C     1.904897    -3.986244     2.082204
 H     2.608738    -3.641179     2.864546
 C     0.757341    -4.708091     2.776961
 H     0.217789    -4.036535     3.461675
 H     1.118347    -5.572917     3.355338
 H     0.029132    -5.080433     2.038132
 C     2.662010    -4.937094     1.161118
 H     2.996943    -5.833185     1.706367
 H     3.554370    -4.469544     0.719027
 H     2.015164    -5.272320     0.332823
 C     3.918874     0.215368    -2.050630
 H     3.133272    -0.098221    -2.740251
 C     4.650864     0.644157     0.208653
 H     4.438785     0.680044     1.281465
 C     5.178714     0.594421    -2.515012
 H     5.387629     0.580142    -3.587543
 C     5.915170     1.028176    -0.241661
 C     6.980554     1.470922     0.719460
 H     7.311853     2.498756     0.501680
 H     6.620758     1.446168     1.757559
 H     7.870458     0.824697     0.654287
 C     6.164910     0.996600    -1.621225
 H     7.147438     1.298293    -1.995912
 C     1.865871     0.454542     2.700021
 H     2.010228    -0.590255     2.977605
 C     1.637616     2.189359     1.042521
 H     1.606932     2.491723    -0.009155
 C     1.709002     1.413373     3.700616
 H     1.730583     1.108351     4.749890
 C     1.498970     3.164795     2.033068
 C     1.336976     4.608946     1.656866
 H     2.288895     5.027993     1.292283
 H     0.600834     4.730579     0.847430
 H     1.008651     5.216219     2.511812
 C     1.525247     2.753984     3.372791
 H     1.402342     3.497147     4.165299
 H    -1.498153     2.559092    -0.870704
 H    -0.859858     2.195403     0.722138
 C    -3.033606     2.469483     0.662939
 H    -3.808265     2.446049    -0.119844
 H    -3.370983     1.758420     1.437933
 C    -2.975517     3.869782     1.281592
 H    -2.460592     4.533699     0.561145
 C    -4.381302     4.416438     1.501480
 H    -4.943757     4.474287     0.556757
 H    -4.357796     5.424447     1.944281
 H    -4.948673     3.765240     2.187456
 C    -2.184124     3.877530     2.585170
 H    -2.088729     4.896864     2.990777
 H    -1.167875     3.476559     2.459980
 H    -2.690677     3.261166     3.346723
 C    -3.297818     0.165735    -2.598816
 H    -2.385914     0.387980    -3.156728
 C    -4.381731    -0.353064    -0.506929
 H    -4.329378    -0.512554     0.572913
 C    -4.528910     0.074837    -3.245701
 H    -4.588825     0.242505    -4.323885
 C    -5.620231    -0.462663    -1.144849
 C    -6.857986    -0.817184    -0.371925
 H    -6.671326    -0.808894     0.711136
 H    -7.678053    -0.113099    -0.581750
 H    -7.219316    -1.823183    -0.641182
 C    -5.678040    -0.240376    -2.526836
 H    -6.638531    -0.318883    -3.044441
 C    -1.435247    -0.055239     2.406045
 H    -1.086513     0.977147     2.447059
 C    -2.187119    -1.990459     1.178737
 H    -2.424093    -2.467775     0.223283
 C    -1.526846    -0.789517     3.587980
 H    -1.249761    -0.319739     4.534945
 C    -2.312215    -2.728188     2.357079
 C    -2.827973    -4.137393     2.326973
 H    -3.927743    -4.152908     2.408856
 H    -2.564351    -4.641672     1.386130
 H    -2.428439    -4.733104     3.160042
 C    -1.969409    -2.108363     3.566894
 H    -2.048174    -2.671609     4.501070
