  88
scf done:    -2147.992145
 C    -1.646280    -1.752956    -2.792456
 H    -2.090768    -2.739121    -2.622431
 H    -2.362560    -1.021885    -3.179045
 C    -0.274795    -1.684971    -3.226862
 H     0.278198    -2.620800    -3.361782
 H     0.016236    -0.905969    -3.937817
 H    -0.691759     0.449693    -1.926127
Ir    -0.425004    -0.985274    -1.190694
 C    -2.832359     1.327593    -0.001368
 O    -3.111425    -1.034396     0.974516
 O    -1.064066     0.276432     1.805806
 C     2.105104    -0.509852     1.213466
 O     2.894077    -0.060225    -1.251495
 O     1.233972     1.659292    -0.295739
 P     1.481023     0.043820    -0.414402
 P    -1.844118    -0.147502     0.408052
 C    -0.039331    -2.708282    -0.434917
 O     0.225193    -3.734974     0.011158
 H    -3.486546     1.526217     0.865165
 H    -3.490623     1.014911    -0.827317
 C    -1.994635     2.544530    -0.365936
 H    -1.170924     2.648035     0.357356
 H    -1.495594     2.366099    -1.332620
 C    -2.781760     3.854095    -0.427950
 H    -3.264909     4.002656     0.557744
 C    -1.835140     5.025679    -0.661280
 H    -1.064701     5.081478     0.123910
 H    -2.374161     5.985769    -0.673526
 H    -1.316444     4.921634    -1.628845
 C    -3.880642     3.819641    -1.483912
 H    -4.429336     4.773623    -1.519972
 H    -4.615252     3.023545    -1.290300
 H    -3.452019     3.642085    -2.484601
 C    -2.976531    -2.415516     1.323335
 H    -1.908279    -2.637809     1.499180
 C    -3.484586    -3.273566     0.183864
 H    -2.924931    -3.050718    -0.733689
 H    -4.550026    -3.065788     0.000597
 H    -3.368581    -4.342179     0.418551
 C    -3.744630    -2.635884     2.611046
 H    -3.344360    -2.016620     3.426146
 H    -4.804029    -2.373672     2.467875
 H    -3.686624    -3.690724     2.918009
 C    -1.734289     0.647219     3.013517
 H    -2.802725     0.385496     2.917896
 C    -1.594493     2.138496     3.251967
 H    -2.070398     2.722878     2.452885
 H    -0.531255     2.418206     3.293931
 H    -2.064703     2.419565     4.206424
 C    -1.126999    -0.172281     4.135652
 H    -1.197145    -1.246774     3.914005
 H    -0.062973     0.080571     4.262138
 H    -1.642493     0.022843     5.087978
 H     1.982426    -1.606158     1.171736
 H     1.344740    -0.153715     1.925947
 C     3.533141    -0.178979     1.623497
 H     4.204783    -0.420210     0.784962
 H     3.646239     0.902974     1.805446
 C     4.002892    -0.925726     2.875119
 H     3.905788    -2.008677     2.669316
 C     5.473706    -0.630364     3.144482
 H     6.100367    -0.886048     2.275982
 H     5.847549    -1.198603     4.010350
 H     5.624835     0.440897     3.359746
 C     3.148680    -0.604287     4.096427
 H     3.518314    -1.129215     4.990866
 H     2.098029    -0.897276     3.953249
 H     3.169560     0.477605     4.314184
 C     2.927686    -0.349398    -2.652871
 H     2.185308    -1.142865    -2.843905
 C     4.318931    -0.861833    -2.954250
 H     4.545236    -1.744811    -2.339350
 H     5.072120    -0.088125    -2.737922
 H     4.404740    -1.143499    -4.014201
 C     2.547031     0.873092    -3.463143
 H     1.536606     1.213877    -3.192867
 H     3.258544     1.694571    -3.284327
 H     2.553957     0.638096    -4.538168
 C     2.217705     2.619408     0.091089
 H     3.215225     2.149703     0.047346
 C     1.923449     3.090110     1.503243
 H     1.912134     2.249390     2.210943
 H     0.937269     3.577428     1.539473
 H     2.680838     3.814657     1.838703
 C     2.168281     3.753306    -0.913371
 H     2.396213     3.386577    -1.922880
 H     1.162671     4.199641    -0.929647
 H     2.895105     4.537185    -0.652282
