 120
scf done:    -3214.854549
 C     0.780078    -2.909073    -1.565400
 H     1.320789    -2.856636    -2.516892
 H     1.318491    -3.469540    -0.794457
 C    -0.658084    -2.917711    -1.581180
 H    -1.177939    -2.875823    -2.544183
 H    -1.207920    -3.487717    -0.827030
 H     0.096142    -1.774271     0.607177
Ir     0.033348    -1.026006    -0.852846
 C     1.678618     0.732293     1.858741
 C     3.046966    -1.416928     0.318855
 C     2.926029     1.310239    -0.601362
 C    -2.298598     1.663750    -0.729414
 C    -3.510939    -0.893818    -0.543695
 C    -1.956585     0.040119     1.795804
 P    -1.954756    -0.016445    -0.050847
 P     1.870449    -0.003414     0.170237
 C     0.114160    -0.224403    -2.572296
 O     0.213685     0.216927    -3.636305
 H     2.642015     0.663932     2.383228
 H     0.968846     0.083549     2.386274
 C     1.161686     2.170753     1.795266
 H     0.569512     2.311731     0.875370
 H     0.451132     2.310561     2.624348
 C     2.214409     3.278591     1.902980
 H     3.038849     3.046018     1.211688
 C     1.621216     4.613876     1.470642
 H     1.255648     4.563234     0.432944
 H     2.363145     5.425746     1.529012
 H     0.768184     4.896824     2.111099
 C     2.795530     3.361191     3.309475
 H     3.586415     4.125201     3.373668
 H     3.234529     2.401591     3.623291
 H     2.014457     3.624995     4.043574
 C     3.758748    -1.820547    -0.826480
 O     3.580590    -1.054716    -1.919294
 C     4.124767    -1.439031    -3.145710
 H     3.773057    -0.704588    -3.881493
 H     5.229350    -1.427825    -3.128936
 H     3.780787    -2.443959    -3.447150
 C     3.126121    -2.234720     1.455840
 O     2.353244    -1.881263     2.507038
 C     2.318861    -2.680612     3.649486
 H     1.592398    -2.215261     4.328922
 H     3.301354    -2.729719     4.152630
 H     1.987106    -3.709730     3.422813
 C     3.949678    -3.369652     1.479018
 H     4.015590    -3.989623     2.372378
 C     4.584841    -2.949437    -0.815676
 H     5.139214    -3.241444    -1.706900
 C     4.680042    -3.708612     0.345993
 H     5.323024    -4.591713     0.363111
 C     4.297188     1.401365    -0.285882
 O     4.729387     0.618217     0.720934
 C     6.095939     0.376594     0.889344
 H     6.178198    -0.421015     1.639224
 H     6.564406     0.031694    -0.048233
 H     6.632932     1.270216     1.253877
 C     2.405212     2.254599    -1.505047
 O     1.068030     2.284238    -1.661659
 C     0.506187     3.148626    -2.608901
 H    -0.574983     2.970617    -2.585738
 H     0.877272     2.934155    -3.624568
 H     0.701098     4.206763    -2.360230
 C     3.249296     3.152570    -2.176600
 H     2.844359     3.862914    -2.895276
 C     5.147724     2.288221    -0.954062
 H     6.209567     2.329885    -0.713507
 C     4.611427     3.145890    -1.907346
 H     5.266095     3.845441    -2.432779
 H    -2.068503     1.510876    -1.795951
 H    -1.524292     2.323914    -0.319146
 C    -3.701342     2.227262    -0.587903
 H    -4.421758     1.472035    -0.942382
 H    -3.931994     2.398289     0.475962
 C    -3.926756     3.517724    -1.381518
 H    -3.622299     3.314940    -2.426629
 C    -5.405083     3.889132    -1.391778
 H    -6.019163     3.078004    -1.812826
 H    -5.591696     4.798912    -1.984159
 H    -5.765345     4.079134    -0.366690
 C    -3.083799     4.680717    -0.869231
 H    -3.210727     5.575124    -1.499278
 H    -2.010330     4.439337    -0.844626
 H    -3.387912     4.955038     0.154868
 C    -4.528708    -1.301623     0.340342
 O    -4.490097    -0.803039     1.588830
 C    -5.210564    -1.419379     2.613645
 H    -4.865315    -0.963330     3.551299
 H    -6.298534    -1.254694     2.515541
 H    -5.014312    -2.505066     2.650162
 C    -3.673626    -1.222283    -1.906481
 O    -2.802701    -0.654849    -2.762328
 C    -2.830045    -1.003302    -4.118155
 H    -2.000208    -0.464847    -4.590761
 H    -3.780295    -0.705740    -4.595235
 H    -2.679742    -2.087227    -4.261664
 C    -4.706067    -2.063515    -2.338722
 H    -4.800546    -2.334680    -3.389045
 C    -5.559209    -2.153397    -0.080168
 H    -6.321782    -2.486125     0.623349
 C    -5.625916    -2.539680    -1.412219
 H    -6.430357    -3.201016    -1.742989
 C    -1.831903    -1.203661     2.452214
 O    -2.060941    -2.288203     1.692117
 C    -1.551310    -3.530357     2.086824
 H    -1.723423    -4.217941     1.249681
 H    -0.467579    -3.468667     2.280660
 H    -2.067564    -3.923456     2.980563
 C    -1.898114     1.195873     2.593811
 O    -2.080901     2.388292     1.985420
 C    -2.107148     3.558858     2.748872
 H    -2.291324     4.381706     2.047160
 H    -1.145875     3.741785     3.259325
 H    -2.914192     3.537856     3.501913
 C    -1.637119     1.111631     3.970795
 H    -1.573711     2.014278     4.576299
 C    -1.539303    -1.295190     3.815368
 H    -1.422607    -2.267886     4.292322
 C    -1.437931    -0.127487     4.564035
 H    -1.216747    -0.184000     5.632504
