  98
scf done:    -2603.003619
 C     0.929339    -3.084280    -2.400127
 H     0.840426    -4.122267    -2.064697
 H     0.194940    -2.809166    -3.161893
 C     2.224643    -2.462775    -2.411826
 H     3.096136    -3.041174    -2.088108
 H     2.459384    -1.732179    -3.191518
 H     0.502847    -0.615255    -1.968184
Ir     1.034591    -1.634050    -0.806744
 O    -1.409299     0.373304    -0.127116
 O    -2.296038    -1.869013    -0.947200
 O    -1.594681    -1.676205     1.407766
 O     1.241229     0.812509     1.397807
 O     3.498649    -0.014922     0.886276
 O     2.412452     1.493174    -0.751546
 P     2.065758     0.170865     0.130421
 P    -1.084119    -1.252939    -0.083401
 C     1.648015    -2.952760     0.456534
 O     2.014120    -3.763174     1.181535
 C    -2.629967     0.971955     0.004941
 C    -3.138772     1.659569    -1.094052
 H    -2.569360     1.640163    -2.025483
 C    -3.316784     0.967781     1.221605
 H    -2.911142     0.421801     2.072855
 C    -4.342004     2.366286    -1.002243
 C    -4.854508     3.132878    -2.186079
 H    -4.858494     2.510129    -3.093584
 H    -5.876536     3.500017    -2.018877
 H    -4.212532     4.004804    -2.392630
 C    -4.521964     1.659275     1.313169
 H    -5.071203     1.658568     2.257681
 C    -5.031056     2.353040     0.215938
 H    -5.975666     2.895192     0.305640
 C    -3.495074    -2.511877    -0.512321
 H    -3.510874    -3.489718    -1.020765
 H    -3.448981    -2.687799     0.571479
 C    -4.722161    -1.705713    -0.879198
 H    -5.602984    -2.291564    -0.559900
 H    -4.740475    -0.776021    -0.287194
 C    -4.827513    -1.370695    -2.359138
 H    -4.808999    -2.303868    -2.950153
 H    -3.926641    -0.808755    -2.654509
 C    -6.074042    -0.568375    -2.692424
 H    -6.991158    -1.129821    -2.450605
 H    -6.102283     0.369133    -2.114812
 H    -6.117096    -0.307634    -3.761023
 C    -0.800623    -1.479140     2.573413
 H     0.266970    -1.579801     2.318233
 H    -0.943751    -0.446523     2.933748
 C    -1.212676    -2.486551     3.621425
 H    -0.664686    -2.247665     4.549439
 H    -2.283844    -2.343728     3.849773
 C    -0.956684    -3.932470     3.220296
 H     0.119992    -4.068604     3.023346
 H    -1.463510    -4.129030     2.260857
 C    -1.422182    -4.932456     4.265376
 H    -0.909068    -4.775761     5.228065
 H    -2.504599    -4.842422     4.452519
 H    -1.224747    -5.967940     3.949747
 C     1.242281     2.118238     1.813419
 C    -0.002881     2.723200     1.976634
 H    -0.895182     2.143566     1.739227
 C     2.418550     2.816628     2.074282
 H     3.380818     2.320809     1.942520
 C    -0.101918     4.049906     2.398595
 C    -1.446185     4.696447     2.570228
 H    -1.485854     5.673632     2.065048
 H    -2.248956     4.067787     2.159140
 H    -1.667949     4.872588     3.635591
 C     2.322119     4.144626     2.487438
 H     3.235795     4.710284     2.686191
 C     1.081438     4.758195     2.646670
 H     1.028943     5.802388     2.966320
 C     4.522605    -0.827180     0.323790
 H     5.280262    -0.918776     1.116860
 H     4.120616    -1.834707     0.120521
 C     5.128487    -0.246056    -0.938500
 H     5.918483    -0.940523    -1.275801
 H     4.364781    -0.251683    -1.736341
 C     5.695262     1.156106    -0.772705
 H     6.483308     1.140666     0.001240
 H     4.897363     1.812217    -0.391203
 C     6.251301     1.725700    -2.067212
 H     7.062541     1.098857    -2.472079
 H     5.467981     1.786545    -2.840339
 H     6.654137     2.739827    -1.924179
 C     1.884889     1.797964    -2.036572
 H     2.662216     2.401068    -2.532452
 H     1.755478     0.863741    -2.607283
 C     0.576977     2.553081    -1.950067
 H     0.167697     2.635745    -2.973317
 H    -0.136239     1.933885    -1.381073
 C     0.690195     3.934738    -1.321666
 H     1.360502     4.561070    -1.937385
 H     1.176959     3.844268    -0.337927
 C    -0.656590     4.619755    -1.160748
 H    -1.158660     4.759541    -2.132964
 H    -1.329318     4.021086    -0.526523
 H    -0.552440     5.610374    -0.692637
