 100
scf done:    -2456.431619
 C     1.231356    -0.639159    -3.399216
 H     1.702296     0.211727    -3.903855
 H     1.882525    -1.517234    -3.360070
 C    -0.183695    -0.830587    -3.552702
 H    -0.745649    -0.119316    -4.168776
 H    -0.573504    -1.851571    -3.603447
 H     0.362165    -1.791759    -1.264894
Ir     0.240508    -0.182312    -1.538676
 C     1.588091     1.225672     1.477883
 C     2.230093    -1.563164     1.055599
 C     3.578276     0.560962    -0.423668
 C    -2.399147     1.496370    -0.066209
 C    -3.213763    -1.118068    -0.878516
 C    -1.557077    -0.822662     1.520112
 P    -1.731791    -0.227123    -0.207158
 P     1.905880    -0.007295     0.136980
 C     0.085595     1.661660    -2.014480
 O    -0.019639     2.752296    -2.369003
 H     2.412175     1.186556     2.208291
 H     0.677518     0.894109     1.995486
 C     1.420724     2.642188     0.951635
 H     2.249784     2.885400     0.266177
 H     0.503164     2.703534     0.343692
 C     1.363110     3.714151     2.042933
 H     2.316602     3.667179     2.602326
 C     1.256283     5.097089     1.411079
 H     2.087407     5.285691     0.714296
 H     1.265866     5.891086     2.173777
 H     0.317582     5.193859     0.840093
 C     0.228770     3.481134     3.035160
 H     0.205477     4.270761     3.801990
 H     0.322899     2.516634     3.556581
 H    -0.747241     3.494431     2.521491
 C     1.815925    -1.691697     2.385551
 H     1.298127    -0.871359     2.883667
 C     2.874787    -2.650559     0.422540
 C     3.375560    -2.572498    -0.986802
 H     4.329554    -2.023281    -1.040970
 H     2.662051    -2.036884    -1.627467
 H     3.539073    -3.577040    -1.401066
 C     2.041586    -2.863229     3.102820
 H     1.706477    -2.933535     4.139844
 C     3.079776    -3.822125     1.158776
 H     3.576418    -4.664897     0.670035
 C     2.677535    -3.935797     2.487306
 H     2.859212    -4.862832     3.036541
 C     3.616418     1.180367    -1.678231
 H     2.693208     1.217896    -2.257127
 C     4.767975     0.479685     0.341027
 C     4.878383    -0.178603     1.688008
 H     4.853548    -1.276115     1.603793
 H     4.060832     0.091399     2.367414
 H     5.826231     0.101093     2.168338
 C     4.788489     1.721199    -2.198414
 H     4.780165     2.199708    -3.180296
 C     5.937498     1.023711    -0.207076
 H     6.860705     0.961620     0.375806
 C     5.960716     1.637907    -1.455935
 H     6.895620     2.050466    -1.843099
 H    -2.408147     1.827773    -1.117386
 H    -1.601633     2.084944     0.414179
 C    -3.761895     1.762227     0.549991
 H    -4.498287     1.079254     0.097321
 H    -3.755077     1.538556     1.630817
 C    -4.252733     3.200489     0.352961
 H    -4.280269     3.391378    -0.736387
 C    -5.671345     3.347976     0.890579
 H    -6.356860     2.627279     0.418273
 H    -6.067179     4.359352     0.710116
 H    -5.698333     3.169480     1.978699
 C    -3.320430     4.229308     0.983399
 H    -3.711541     5.250168     0.854070
 H    -2.314096     4.207397     0.538612
 H    -3.215052     4.050795     2.067300
 C    -3.215491    -1.218305    -2.275612
 H    -2.340303    -0.845288    -2.808159
 C    -4.334642    -1.595816    -0.153675
 C    -4.494871    -1.552178     1.340748
 H    -4.132771    -0.619746     1.785569
 H    -3.939126    -2.365405     1.832105
 H    -5.555185    -1.668790     1.605080
 C    -4.276085    -1.782373    -2.976448
 H    -4.240065    -1.840935    -4.066626
 C    -5.384649    -2.173037    -0.883315
 H    -6.250657    -2.548373    -0.331032
 C    -5.368530    -2.273349    -2.270535
 H    -6.212383    -2.729408    -2.794082
 C    -1.574736     0.100553     2.575384
 H    -1.700531     1.163328     2.366777
 C    -1.365493    -2.193005     1.805799
 C    -1.281390    -3.235151     0.734098
 H    -0.604639    -2.911491    -0.071653
 H    -2.262026    -3.420888     0.266861
 H    -0.908446    -4.183368     1.144014
 C    -1.447623    -0.305080     3.900699
 H    -1.470763     0.437692     4.701655
 C    -1.263745    -2.580867     3.147553
 H    -1.124899    -3.641863     3.370371
 C    -1.309555    -1.660758     4.189684
 H    -1.225668    -2.000718     5.224739
