  58
scf done:    -1830.830422
 C    -4.374254     0.552738    -0.364248
 H    -4.908280     0.754922     0.570151
 H    -4.507184     1.338086    -1.114663
 C    -4.236543    -0.814573    -0.802380
 H    -4.669137    -1.611591    -0.188570
 H    -4.265949    -1.032214    -1.874158
 H    -2.170123     0.455989    -1.678754
Ir    -2.328932    -0.071818    -0.129875
 O     0.402602     1.653213    -0.671078
 C    -1.585279     3.396843    -0.082422
 C    -0.318073     1.916123     1.984446
 O     0.672218    -1.347052     0.415762
 C    -0.938131    -3.315045    -0.567333
 C     0.132445    -1.323071    -2.290548
 P    -0.626920    -1.519590    -0.649619
 P    -0.974089     1.722411     0.294642
 C    -2.563508    -0.693623     1.670034
 O    -2.680108    -1.067972     2.750273
 C     1.578089     2.298406    -0.415765
 C     2.513852     1.703440     0.430665
 H     2.253433     0.756440     0.905649
 C     1.871927     3.503162    -1.057519
 H     1.135915     3.943894    -1.732333
 C     3.764746     2.290241     0.643727
 C     4.758270     1.626346     1.552650
 H     4.792144     0.540010     1.377271
 H     5.769730     2.032662     1.411996
 H     4.484828     1.773120     2.610528
 C     3.113755     4.096532    -0.842524
 H     3.356957     5.035428    -1.346017
 C     4.052742     3.497762    -0.003550
 H     5.027051     3.970074     0.146114
 H    -1.903973     3.419059    -1.133731
 H    -2.465036     3.593105     0.547906
 H    -0.819021     4.166425     0.097162
 H    -1.182716     2.089680     2.642636
 H     0.162580     0.975891     2.287726
 H     0.392143     2.750356     2.079925
 C     1.849659    -2.034859     0.328450
 C     2.879115    -1.557120    -0.484062
 H     2.707546    -0.655638    -1.074895
 C     2.046522    -3.170105     1.118228
 H     1.236849    -3.516948     1.762729
 C     4.122464    -2.198069    -0.518671
 C     5.216339    -1.666454    -1.399149
 H     5.024744    -1.909479    -2.457282
 H     5.287455    -0.570312    -1.328247
 H     6.193118    -2.093465    -1.132216
 C     3.279471    -3.815112     1.083206
 H     3.443331    -4.699699     1.703456
 C     4.309382    -3.335485     0.274542
 H     5.275539    -3.846429     0.264177
 H    -1.314635    -3.567224     0.434088
 H    -1.727595    -3.547237    -1.297161
 H    -0.039268    -3.910291    -0.789351
 H    -0.654922    -1.511658    -3.034673
 H     0.457548    -0.277982    -2.386192
 H     0.974165    -2.011307    -2.454582
