  90
scf done:    -2922.139913
 C    -1.887488    -1.180047    -3.170966
 H    -2.611891    -2.001535    -3.200701
 H    -2.277807    -0.252450    -3.601637
 C    -0.493971    -1.497765    -3.327682
 H    -0.210409    -2.546986    -3.460829
 H     0.157965    -0.806080    -3.869347
 H    -0.566285     0.587748    -1.904332
Ir    -0.857863    -0.893524    -1.295730
 C    -3.051375     1.837924    -0.324867
 C    -3.976668    -0.691036     0.354397
 C    -1.848486     0.305314     1.895872
 C     1.404109    -0.954088     1.482479
 C     2.629657    -1.526554    -1.042213
 C     1.827226     1.168236    -0.486000
 P     1.244261    -0.557059    -0.336208
 P    -2.360090     0.166048     0.138895
 C    -1.144202    -2.649441    -0.573314
 O    -1.290460    -3.685931    -0.093807
 H    -3.631337     1.588700    -1.228022
 H    -3.783076     2.093929     0.456942
 C    -2.158311     3.013452    -0.603249
 C    -2.106022     4.090239     0.291769
 H    -2.701531     4.062080     1.208782
 C    -1.432104     3.106633    -1.795420
 H    -1.484033     2.282733    -2.509973
 C    -1.328369     5.210297     0.007637
 H    -1.298440     6.044057     0.713667
 C    -0.650367     4.224782    -2.099102
 C     0.090309     4.308002    -3.401638
 H     0.386414     3.310809    -3.756543
 H    -0.539524     4.766055    -4.182652
 H     0.995962     4.923754    -3.305672
 C    -0.600755     5.276226    -1.176960
 H     0.017144     6.152111    -1.390756
 C    -4.392443    -1.645366    -0.578007
 H    -3.725764    -1.894861    -1.405643
 C    -4.832822    -0.366330     1.417003
 H    -4.522850     0.368114     2.165288
 C    -5.632403    -2.269360    -0.460408
 H    -5.966660    -3.019065    -1.179659
 C    -6.072093    -0.982281     1.549702
 H    -6.746006    -0.745562     2.375025
 C    -6.455536    -1.929084     0.604561
 F    -7.638619    -2.523340     0.729551
 C    -1.372750     1.488408     2.469779
 H    -1.371770     2.414124     1.894102
 C    -1.821615    -0.870936     2.662643
 H    -2.179784    -1.809044     2.229924
 C    -0.871892     1.503169     3.772592
 H    -0.495498     2.420691     4.228842
 C    -1.335248    -0.868778     3.963836
 H    -1.309446    -1.778118     4.566847
 C    -0.858051     0.322788     4.502990
 F    -0.384675     0.329794     5.745278
 H     0.775559    -0.224946     2.012356
 H     0.898028    -1.925841     1.582219
 C     2.791343    -1.011561     2.036544
 C     3.492633    -2.223195     2.054613
 H     3.005111    -3.133253     1.695635
 C     3.439757     0.142415     2.489947
 H     2.901590     1.093033     2.488727
 C     4.810412    -2.266770     2.498473
 H     5.351417    -3.216072     2.499988
 C     4.765573     0.118564     2.934217
 C     5.423717     1.372726     3.432682
 H     5.058751     2.259305     2.893485
 H     5.211006     1.530327     4.503385
 H     6.516509     1.327658     3.319923
 C     5.447008    -1.103855     2.926532
 H     6.486128    -1.143945     3.264801
 C     3.968766    -1.146879    -0.863007
 H     4.210785    -0.220213    -0.338685
 C     2.352681    -2.731994    -1.694612
 H     1.311991    -3.024242    -1.846167
 C     5.004495    -1.945075    -1.334492
 H     6.049762    -1.662501    -1.199046
 C     3.380219    -3.549197    -2.159204
 H     3.176865    -4.491818    -2.670220
 C     4.694697    -3.140298    -1.974185
 F     5.683624    -3.910187    -2.421561
 C     2.499851     1.583804    -1.641464
 H     2.762357     0.854108    -2.410713
 C     1.477203     2.129172     0.468623
 H     0.923825     1.838220     1.361998
 C     2.832753     2.921354    -1.832006
 H     3.354466     3.256973    -2.729919
 C     1.802167     3.469841     0.291703
 H     1.516278     4.228195     1.021428
 C     2.474615     3.847806    -0.861957
 F     2.756719     5.137090    -1.059772
