  90
scf done:    -2897.913281
 C     1.351525    -2.930943    -1.586331
 H     2.122725    -2.746279    -2.341292
 H     1.685412    -3.581090    -0.772727
 C    -0.028495    -2.943453    -1.976475
 H    -0.295097    -2.772394    -3.023864
 H    -0.711038    -3.621262    -1.456466
 H     0.036879    -2.040726     0.446493
Ir     0.403934    -1.133616    -0.867783
 C     3.667691    -1.079718     0.442518
 O     2.427963     1.312236     0.092291
 O     1.851139    -0.256815     2.087612
 C    -1.647468     1.743362    -0.148092
 O    -2.636498    -0.302303    -1.682455
 O    -2.428370    -0.511263     0.896384
 P    -1.568881    -0.056352    -0.430173
 P     2.043024    -0.268957     0.440881
 C     0.881249    -0.141497    -2.451492
 O     1.203722     0.441762    -3.384971
 C     4.144772    -1.797112     1.539323
 H     3.548155    -1.815257     2.452506
 C     4.426028    -1.048199    -0.745219
 O     3.892066    -0.348909    -1.762269
 C     4.590933    -0.226606    -2.970769
 H     5.545803     0.308074    -2.829077
 H     3.944162     0.352639    -3.640920
 H     4.787696    -1.211710    -3.427345
 C     5.364645    -2.468651     1.475380
 H     5.729484    -3.023958     2.341569
 C     5.653250    -1.712116    -0.808115
 H     6.253892    -1.681998    -1.717104
 C     6.112871    -2.418040     0.303309
 H     7.073528    -2.935340     0.243792
 C     3.613664     1.939891     0.357043
 C     4.178471     2.690129    -0.675246
 H     3.664719     2.719625    -1.637856
 C     4.234712     1.865097     1.604560
 H     3.776308     1.277288     2.400635
 C     5.373825     3.369155    -0.457105
 H     5.814744     3.958485    -1.264949
 C     5.435162     2.543863     1.806987
 H     5.924597     2.483001     2.781937
 C     6.009128     3.295672     0.783251
 H     6.949114     3.825674     0.951445
 C     0.669383     0.107225     2.686436
 C     0.247241     1.435152     2.659419
 H     0.837841     2.178492     2.122517
 C    -0.067346    -0.865746     3.358151
 H     0.281761    -1.899290     3.344581
 C    -0.930641     1.788070     3.314311
 H    -1.269123     2.826066     3.280290
 C    -1.233972    -0.498489     4.021840
 H    -1.814815    -1.260211     4.546254
 C    -1.670920     0.826034     3.998265
 H    -2.592647     1.108098     4.512652
 C    -0.506419     2.474733    -0.481567
 H     0.370782     1.940095    -0.848479
 C    -2.765902     2.429133     0.384723
 O    -3.850181     1.710834     0.695920
 C    -5.027146     2.354536     1.094463
 H    -4.900126     2.878488     2.058135
 H    -5.781426     1.566650     1.209499
 H    -5.375623     3.069570     0.330264
 C    -0.442082     3.855324    -0.309378
 H     0.468597     4.397206    -0.570825
 C    -2.699354     3.817262     0.559796
 H    -3.552806     4.357568     0.968919
 C    -1.545357     4.519100     0.216220
 H    -1.516785     5.601261     0.367269
 C    -3.838236     0.323585    -1.881784
 C    -3.873499     1.553138    -2.538654
 H    -2.936968     2.010608    -2.861982
 C    -5.016833    -0.298125    -1.469389
 H    -4.959112    -1.262305    -0.961386
 C    -5.100610     2.174213    -2.763634
 H    -5.128898     3.139116    -3.275814
 C    -6.237541     0.328166    -1.706308
 H    -7.161922    -0.159055    -1.386073
 C    -6.285280     1.567280    -2.347155
 H    -7.245757     2.054363    -2.530557
 C    -3.085013    -1.673962     1.130967
 C    -3.914299    -1.693694     2.256508
 H    -3.978550    -0.790664     2.864265
 C    -2.992514    -2.797500     0.306595
 H    -2.359866    -2.767994    -0.580071
 C    -4.634123    -2.843054     2.565274
 H    -5.280694    -2.851578     3.446469
 C    -3.721036    -3.942172     0.628725
 H    -3.643926    -4.818763    -0.019285
 C    -4.540131    -3.976256     1.755376
 H    -5.106781    -4.877508     1.998787
