  70
scf done:    -1987.882794
 C    -3.526712    -1.080490    -0.653527
 H    -4.199428    -1.377672     0.158705
 H    -3.914749    -0.245169    -1.245571
 C    -2.751768    -2.103710    -1.312154
 H    -2.859394    -3.140895    -0.976547
 H    -2.566925    -2.016955    -2.387487
 H    -1.434936     0.072091    -1.447974
Ir    -1.460708    -0.865629    -0.112145
 C     0.251215     2.166861     0.119502
 C    -2.635221     2.363115     0.629941
 C    -0.866580     1.346411     2.646837
 C     2.024450    -1.049653     0.709235
 C     1.181203    -3.140076    -0.951496
 C     1.465333    -0.497876    -2.132459
 P     0.784495    -1.358405    -0.638321
 P    -1.176677     1.247860     0.828074
 C    -1.690637    -1.929802     1.457510
 O    -1.897269    -2.545825     2.410415
 C     1.487469     2.160978     0.773077
 H     1.575930     1.697285     1.756557
 C     0.190693     2.744082    -1.169432
 O    -1.004986     2.715014    -1.789572
 C    -1.128578     3.221814    -3.088285
 H    -0.900333     4.301197    -3.130215
 H    -2.173572     3.065675    -3.384021
 H    -0.474411     2.686628    -3.797720
 C     2.632194     2.707646     0.192346
 H     3.578870     2.679929     0.735576
 C     1.334771     3.295810    -1.755048
 H     1.284254     3.739217    -2.749336
 C     2.551136     3.275601    -1.073098
 H     3.436360     3.709406    -1.544477
 H    -2.875541     2.332814    -0.440037
 C    -3.821976     1.901815     1.461133
 H    -3.651257     2.026113     2.541446
 H    -4.034950     0.838741     1.271905
 H    -2.342386     3.398749     0.868210
 H    -4.722699     2.479596     1.203440
 H     0.050651     0.771792     2.842251
 C    -0.793890     2.732744     3.265917
 H    -1.745047     3.276025     3.164988
 H    -0.010961     3.347088     2.796509
 H    -1.678014     0.748052     3.092716
 H    -0.566796     2.666981     4.341566
 C     1.560485    -1.171314     2.021035
 H     0.511998    -1.429203     2.170997
 C     3.390909    -0.739001     0.530795
 O     3.863567    -0.707361    -0.730962
 C     5.169394    -0.270541    -0.975632
 H     5.331164     0.756179    -0.603977
 H     5.300856    -0.277810    -2.065286
 H     5.921465    -0.939640    -0.522141
 C     2.374805    -0.948447     3.130604
 H     1.967675    -1.053494     4.138222
 C     4.207939    -0.477657     1.637820
 H     5.254063    -0.206709     1.495620
 C     3.699298    -0.577940     2.931067
 H     4.354144    -0.375230     3.782042
 H     0.932439    -3.652162    -0.007685
 C     0.428409    -3.765132    -2.112840
 H     0.744957    -3.341451    -3.077797
 H    -0.653381    -3.598974    -2.008194
 H     2.273571    -3.219859    -1.084560
 H     0.609763    -4.850182    -2.155696
 H     2.353376    -1.061438    -2.448894
 C     0.499800    -0.312776    -3.290859
 H    -0.352334     0.314291    -2.997674
 H     0.085768    -1.265848    -3.650784
 H     1.830590     0.479409    -1.782198
 H     1.021130     0.167618    -4.134588
