 102
scf done:    -2682.503865
 C    -2.115247    -1.606273    -2.677211
 H    -3.016391    -2.167485    -2.409458
 H    -2.310310    -0.786370    -3.375472
 C    -0.847201    -2.276454    -2.724356
 H    -0.809726    -3.348086    -2.500557
 H    -0.102012    -1.969113    -3.464270
 H    -0.373938     0.162653    -1.991273
Ir    -0.935211    -1.001093    -0.979447
 C    -2.080327     2.310487    -1.165801
 C    -4.099517     0.338707    -0.611228
 C    -2.370471     1.236423     1.548414
 C     1.550745     0.880185     0.669872
 C     1.421009    -2.005679     1.390987
 C     2.644225    -1.064664    -1.118905
 P     1.200695    -0.825190     0.008950
 P    -2.333156     0.720089    -0.226686
 C    -1.513181    -2.444832     0.132460
 O    -1.812043    -3.352249     0.772313
 H    -2.150996     2.013990    -2.220553
 H    -2.914002     2.992762    -0.951793
 C    -0.758574     2.980489    -0.939504
 C    -0.477924     3.673937     0.245671
 H    -1.227640     3.730362     1.036873
 C     0.230783     2.918830    -1.925986
 H     0.018514     2.375281    -2.850606
 C     0.765338     4.271328     0.428710
 H     0.981509     4.797743     1.361249
 C     1.487996     3.512089    -1.756804
 C     2.529518     3.396010    -2.831741
 H     2.717994     2.341383    -3.089525
 H     2.208288     3.903111    -3.755682
 H     3.482949     3.842276    -2.516240
 C     1.743486     4.189332    -0.561121
 H     2.723838     4.643331    -0.396824
 C    -4.636337     0.797294    -1.823852
 H    -4.035685     1.418334    -2.488108
 C    -4.892612    -0.490132     0.216248
 C    -4.423620    -1.047746     1.528552
 H    -4.476037    -0.294714     2.330321
 H    -3.383589    -1.391136     1.486941
 H    -5.048138    -1.901560     1.825369
 C    -5.929972     0.474205    -2.221414
 H    -6.314746     0.848065    -3.173006
 C    -6.191755    -0.800058    -0.204875
 H    -6.804146    -1.440875     0.435525
 C    -6.717800    -0.327967    -1.402910
 H    -7.735470    -0.594274    -1.697718
 C    -1.526044     0.508934     2.394119
 H    -0.938006    -0.300806     1.955075
 C    -3.197779     2.242219     2.098527
 C    -4.173410     3.057303     1.298240
 H    -4.665393     2.465092     0.515014
 H    -3.676779     3.912111     0.809532
 H    -4.952637     3.472142     1.952342
 C    -1.451565     0.766300     3.758702
 H    -0.791127     0.168624     4.391327
 C    -3.103078     2.492099     3.474471
 H    -3.739027     3.268931     3.908192
 C    -2.241017     1.776028     4.300658
 H    -2.202035     1.998322     5.369803
 H     1.231196     1.490794    -0.185417
 H     0.813977     1.073555     1.461054
 C     2.935325     1.267140     1.083136
 C     3.298180     1.390036     2.430744
 H     2.551063     1.232060     3.212017
 C     3.904403     1.533857     0.110116
 H     3.626764     1.470667    -0.943953
 C     4.602016     1.727301     2.782718
 H     4.873415     1.818711     3.837321
 C     5.220970     1.862947     0.443715
 C     6.229336     2.101118    -0.642144
 H     5.918943     2.928514    -1.300289
 H     7.219070     2.347121    -0.232551
 H     6.331471     1.208315    -1.279874
 C     5.562414     1.949142     1.797220
 H     6.587186     2.204171     2.080790
 C     1.376043    -1.546496     2.712659
 H     1.318976    -0.476981     2.910585
 C     1.491181    -3.395312     1.141908
 C     1.551878    -3.960439    -0.245825
 H     2.567388    -3.878838    -0.666441
 H     0.885725    -3.416877    -0.932868
 H     1.269246    -5.022088    -0.246767
 C     1.409276    -2.428141     3.788802
 H     1.377788    -2.042614     4.810712
 C     1.522873    -4.263137     2.239008
 H     1.572165    -5.339072     2.050625
 C     1.485613    -3.797015     3.550069
 H     1.509390    -4.504215     4.382422
 C     2.397848    -0.737969    -2.458882
 H     1.378221    -0.462829    -2.736752
 C     3.955405    -1.424314    -0.722561
 C     4.364488    -1.766883     0.680940
 H     3.953499    -1.065874     1.417421
 H     5.459316    -1.742161     0.767637
 H     4.024433    -2.771990     0.973419
 C     3.407741    -0.752055    -3.416107
 H     3.183569    -0.485190    -4.451572
 C     4.949444    -1.455576    -1.711933
 H     5.963455    -1.738074    -1.415762
 C     4.694820    -1.122172    -3.038533
 H     5.503481    -1.151124    -3.773100
