  82
scf done:    -2144.996761
 C     1.477108    -3.159163    -0.319811
 H     1.537236    -3.592548    -1.324575
 H     2.459648    -3.011924     0.140540
 C     0.359319    -3.508601     0.524126
 H    -0.401912    -4.195972     0.138388
 H     0.532868    -3.627873     1.598221
 H     1.075269    -1.189356     1.220171
Ir     0.184760    -1.463877    -0.121071
 C     2.136984     1.410401     0.311848
 C     2.939489    -0.316041    -1.925895
 C     0.566951     1.558571    -2.103462
 C    -2.676904     0.525402    -0.187678
 C    -2.741972    -1.547907     1.818532
 C    -1.054718     0.931248     2.271946
 P    -1.553667    -0.342432     1.002734
 P     1.440205     0.322239    -1.004239
 C    -0.841912    -1.984696    -1.645289
 O    -1.453685    -2.389096    -2.534413
 C     1.664233     2.703718     0.550724
 H     0.938045     3.143023    -0.131442
 C     3.075412     0.881423     1.228289
 O     3.539202    -0.353376     0.965376
 C     4.256256    -1.051620     1.943810
 H     5.239484    -0.590182     2.142450
 H     4.411942    -2.064568     1.551949
 H     3.689047    -1.116996     2.887850
 C     2.073614     3.452606     1.654482
 H     1.678660     4.459375     1.807282
 C     3.485739     1.623753     2.339530
 H     4.202431     1.203408     3.045118
 C     2.982756     2.905963     2.551730
 H     3.312384     3.475279     3.423999
 H     3.250293    -1.114557    -1.236810
 C     2.530336    -0.974663    -3.237564
 H     3.367570    -1.572171    -3.632435
 H     1.673301    -1.650042    -3.096949
 H     2.267426    -0.234166    -4.008517
 C     4.115123     0.637747    -2.094404
 H     4.382069     1.134932    -1.151332
 H     4.999242     0.072001    -2.432151
 H     3.921958     1.415995    -2.845203
 H    -0.057874     2.087247    -1.366489
 C     1.468648     2.570254    -2.803854
 H     0.860044     3.390233    -3.220394
 H     2.217993     3.013602    -2.132899
 H     2.002447     2.107974    -3.647143
 C    -0.405847     0.910852    -3.082964
 H    -1.171081     0.322977    -2.563231
 H    -0.927677     1.697787    -3.650806
 H     0.095867     0.255009    -3.808039
 C    -3.537958    -0.295433    -0.930203
 H    -3.558030    -1.366702    -0.722289
 C    -2.647589     1.894902    -0.529143
 O    -1.774213     2.691366     0.133650
 C    -1.802475     4.075470    -0.066557
 H    -1.504656     4.350120    -1.094196
 H    -1.079691     4.505329     0.639177
 H    -2.800089     4.498812     0.141923
 C    -4.356463     0.194500    -1.943244
 H    -5.005450    -0.487241    -2.495916
 C    -3.476650     2.397284    -1.538953
 H    -3.449480     3.457208    -1.791088
 C    -4.328573     1.551524    -2.242957
 H    -4.962107     1.960703    -3.033158
 H    -2.873728    -2.283953     1.006907
 C    -2.051145    -2.283744     2.961745
 H    -2.612175    -3.197560     3.214024
 H    -1.027330    -2.573964     2.688589
 H    -2.010717    -1.664292     3.869766
 C    -4.113061    -1.028264     2.235216
 H    -4.613189    -0.461677     1.437536
 H    -4.763502    -1.878121     2.500405
 H    -4.050259    -0.380529     3.120117
 H    -0.520564     1.644936     1.630238
 C    -2.206771     1.663370     2.950951
 H    -1.831740     2.587500     3.420811
 H    -3.006342     1.943719     2.251548
 H    -2.651323     1.053558     3.751465
 C    -0.043123     0.423854     3.293957
 H     0.756700    -0.152665     2.810399
 H     0.417796     1.287453     3.799215
 H    -0.506635    -0.207094     4.065652
