  90
scf done:    -4735.870293
 C     2.117364    -3.374977    -0.530349
 H     1.957609    -4.195187     0.176154
 H     1.750310    -3.582955    -1.539066
 C     3.247891    -2.510877    -0.361871
 H     3.939563    -2.690185     0.466750
 H     3.726165    -2.068499    -1.239654
 H     1.422599    -1.054498    -1.382313
Ir     1.445625    -1.452823     0.201104
 O    -1.712294    -2.744751     0.474377
 O    -1.512118    -0.251345     1.001980
 O    -1.430681    -1.163393    -1.422976
 O     0.632266     1.779295    -0.250423
 O     1.468414     1.317940     2.018568
 O     3.102822     1.533902     0.091937
 P     1.696023     0.764228     0.501435
 P    -0.809598    -1.419672     0.065419
 C     1.670866    -1.970067     2.062477
 O     1.866090    -2.255231     3.151502
 C    -1.341970    -3.516376     1.555255
 C    -1.383807    -2.989107     2.843032
 H    -1.702879    -1.954220     2.985517
 C    -0.926293    -4.824874     1.324021
 H    -0.892660    -5.202992     0.301202
 C    -0.988731    -3.767296     3.936885
 C    -0.952488    -3.170859     5.312205
 H    -0.021351    -2.596077     5.448869
 H    -1.791860    -2.479632     5.476802
 H    -0.983210    -3.945320     6.091262
 C    -0.554096    -5.608125     2.412558
 H    -0.228674    -6.638270     2.249768
 C    -0.581031    -5.084956     3.704648
 H    -0.273428    -5.707923     4.548197
 C    -2.726945     0.357104     0.795571
 C    -3.923494    -0.346799     0.925696
 H    -3.904799    -1.402658     1.198886
 C    -2.722757     1.707738     0.452775
 H    -1.765059     2.224002     0.364277
 C    -5.126842     0.294331     0.650932
 H    -6.071783    -0.247507     0.709355
 C    -3.927634     2.353486     0.193791
 H    -3.944319     3.406318    -0.092307
 C    -5.121315     1.637212     0.273983
Cl    -6.615559     2.417195    -0.123664
 C    -2.738122    -1.163517    -1.862687
 C    -3.254290     0.026199    -2.373651
 H    -2.628137     0.919204    -2.387947
 C    -3.508632    -2.323861    -1.844280
 H    -3.081367    -3.248818    -1.459918
 C    -4.572483     0.076068    -2.810959
 H    -5.002108     1.009801    -3.176265
 C    -4.828378    -2.274939    -2.284657
 H    -5.452481    -3.169632    -2.262157
 C    -5.359557    -1.073743    -2.750665
Cl    -7.014582    -1.005751    -3.255492
 C     0.794748     2.212115    -1.546671
 C     0.324418     1.429759    -2.596163
 H    -0.148443     0.472776    -2.371923
 C     1.414198     3.439146    -1.778440
 H     1.772449     4.025745    -0.931487
 C     0.470638     1.863691    -3.920009
 C    -0.031009     1.005650    -5.044745
 H     0.527753     0.057547    -5.095564
 H    -1.090774     0.742435    -4.901963
 H     0.069000     1.510599    -6.015349
 C     1.558810     3.873081    -3.092562
 H     2.041889     4.832020    -3.294031
 C     1.095345     3.093291    -4.153451
 H     1.217824     3.447350    -5.180213
 C     1.117106     2.608322     2.339671
 C    -0.160051     2.832154     2.847642
 H    -0.843158     1.987362     2.949059
 C     2.018354     3.659555     2.185444
 H     3.012496     3.458968     1.784013
 C    -0.546045     4.120232     3.203469
 H    -1.544409     4.312925     3.599139
 C     1.632744     4.950388     2.537770
 H     2.323608     5.787253     2.424085
 C     0.352652     5.174975     3.042968
Cl    -0.126724     6.782130     3.477388
 C     4.112560     0.909548    -0.599038
 C     4.063459     0.831732    -1.989286
 H     3.212330     1.257202    -2.524020
 C     5.184870     0.370090     0.106450
 H     5.194051     0.437195     1.195714
 C     5.097222     0.205506    -2.679010
 H     5.073273     0.131619    -3.767160
 C     6.221318    -0.254285    -0.579996
 H     7.066547    -0.686407    -0.042455
 C     6.169524    -0.336916    -1.971092
Cl     7.451526    -1.124201    -2.829924
