 106
scf done:    -2459.267969
 C     0.499281     3.163056     1.048980
 H    -0.225556     3.917970     0.724232
 H     0.499714     3.009381     2.132726
 C     1.736527     3.033748     0.321463
 H     1.914109     3.690540    -0.537191
 H     2.650109     2.788798     0.871189
 H     1.221993     0.734264     1.275236
Ir     0.474859     1.326894    -0.057694
 C    -1.131162    -1.172793     1.907298
 C    -2.616804     1.284740     1.633701
 C    -2.465788    -0.560558    -0.576038
 C     0.634997    -1.072511    -2.628391
 C     3.216485    -0.107565    -1.935209
 C     1.937986    -1.898954    -0.101566
 P     1.559487    -0.435459    -1.157114
 P    -1.420690     0.207874     0.732109
 C    -0.355034     2.080518    -1.604633
 O    -0.861910     2.530100    -2.536885
 C    -1.374965    -2.507422     1.573458
 H    -1.819780    -2.742597     0.606792
 C    -0.527526    -0.902308     3.155852
 O    -0.317737     0.393057     3.449102
 C     0.553614     0.736648     4.490160
 H     0.138453     0.475446     5.479254
 H     0.689035     1.824039     4.436538
 H     1.535253     0.247565     4.368491
 C    -1.040667    -3.553885     2.433794
 H    -1.246932    -4.586758     2.145082
 C    -0.179895    -1.947586     4.017450
 H     0.293644    -1.735454     4.976319
 C    -0.442627    -3.268435     3.655980
 H    -0.169562    -4.075417     4.340051
 H    -3.429911     0.660770     2.041183
 H    -2.056918     1.691476     2.488093
 C    -3.159221     2.410651     0.766692
 H    -2.311117     2.940023     0.302056
 H    -3.754151     1.999883    -0.068326
 C    -4.010789     3.403873     1.544533
 H    -3.411382     3.819134     2.375020
 H    -4.856868     2.875157     2.021053
 C    -4.543509     4.543423     0.687318
 H    -3.692903     5.061475     0.210360
 H    -5.138190     4.123578    -0.143456
 C    -5.383702     5.543953     1.464204
 H    -5.752929     6.354813     0.818001
 H    -4.802031     6.006359     2.278010
 H    -6.260516     5.059034     1.923320
 H    -2.518274     0.195136    -1.376717
 H    -1.854230    -1.370975    -1.001326
 C    -3.859715    -1.050751    -0.209290
 H    -3.828646    -1.655370     0.713157
 H    -4.506494    -0.188087     0.023342
 C    -4.496330    -1.867455    -1.326005
 H    -3.858786    -2.745888    -1.540255
 H    -4.497280    -1.274173    -2.258259
 C    -5.910774    -2.335697    -1.016596
 H    -5.901794    -2.917574    -0.077752
 H    -6.545379    -1.454953    -0.813766
 C    -6.528691    -3.166436    -2.129565
 H    -7.550661    -3.488761    -1.878930
 H    -5.934135    -4.072962    -2.328633
 H    -6.580920    -2.596316    -3.071070
 C     0.594775    -0.227893    -3.744608
 H     1.133761     0.722022    -3.708593
 C    -0.121024    -2.261658    -2.689500
 O    -0.140442    -3.044492    -1.585205
 C    -0.770266    -4.292394    -1.626570
 H    -1.860500    -4.200956    -1.779966
 H    -0.587557    -4.762987    -0.651759
 H    -0.352883    -4.936041    -2.420182
 C    -0.127625    -0.540009    -4.892841
 H    -0.132920     0.150053    -5.738566
 C    -0.845750    -2.585866    -3.842164
 H    -1.424457    -3.508599    -3.883969
 C    -0.845901    -1.729310    -4.939991
 H    -1.421181    -1.996138    -5.829570
 H     3.732044    -1.079889    -2.029319
 H     3.040645     0.245514    -2.962493
 C     4.069026     0.908453    -1.192669
 H     3.519882     1.861734    -1.158949
 H     4.190391     0.611603    -0.138190
 C     5.438098     1.110460    -1.825039
 H     5.313594     1.404944    -2.883639
 H     5.984306     0.149089    -1.847054
 C     6.282941     2.154195    -1.107503
 H     5.730006     3.109749    -1.084735
 H     6.401475     1.856179    -0.050566
 C     7.650342     2.365740    -1.736787
 H     8.235478     3.124701    -1.195387
 H     7.561009     2.699468    -2.783327
 H     8.237677     1.433103    -1.740133
 H     0.982047    -2.208207     0.340627
 H     2.274591    -2.723984    -0.749244
 C     2.940757    -1.624826     1.009352
 H     3.950883    -1.468536     0.593491
 H     2.662120    -0.684627     1.515321
 C     2.978992    -2.751328     2.032451
 H     3.316663    -3.686561     1.548961
 H     1.950786    -2.946076     2.381843
 C     3.861499    -2.451515     3.234989
 H     4.895587    -2.259724     2.897469
 H     3.521158    -1.507560     3.698014
 C     3.855091    -3.560030     4.275110
 H     4.492728    -3.316991     5.138869
 H     4.219200    -4.509242     3.849792
 H     2.835241    -3.741654     4.651949
