  86
scf done:    -4435.007853
 C    -0.817243     1.011859    -3.215104
 H    -1.350161     0.302058    -3.856078
 H    -1.379214     1.931675    -3.028602
 C     0.616632     1.054011    -3.279559
 H     1.121551     0.374132    -3.975097
 H     1.136543     2.007874    -3.151483
 H    -0.018778     1.746836    -0.947329
Ir    -0.013592     0.183432    -1.404891
 C    -1.798308     1.362797     1.377731
 C    -3.489483     0.426138    -0.784177
 C    -2.300830    -1.401385     0.946470
 C     1.761645    -0.890959     1.561682
 C     3.380100    -0.719468    -0.754603
 C     2.507782     1.669860     0.539245
 P     1.872742     0.038261    -0.024141
 P    -1.863487     0.131235     0.021862
 C     0.054176    -1.619565    -2.062572
 O     0.132050    -2.682440    -2.497166
 C    -1.474838     0.983991     2.682593
 H    -1.370320    -0.076390     2.919672
 C    -1.890024     2.740786     1.075760
 O    -2.162882     3.047770    -0.200779
 C    -2.089611     4.378513    -0.632812
 H    -2.859758     5.007369    -0.153610
 H    -2.266840     4.361681    -1.715000
 H    -1.093048     4.809637    -0.437126
 C    -1.255356     1.934526     3.679874
 H    -0.993788     1.612580     4.689665
 C    -1.687898     3.695141     2.078631
 H    -1.768576     4.758255     1.850948
 C    -1.370187     3.286492     3.374276
 H    -1.207243     4.041453     4.147166
 C    -3.731543    -0.217477    -2.001337
 H    -2.936270    -0.811698    -2.457406
 C    -4.507095     1.197318    -0.214326
 H    -4.340423     1.710123     0.735930
 C    -4.962276    -0.103224    -2.639844
 H    -5.150705    -0.607003    -3.589124
 C    -5.740516     1.328731    -0.845776
 H    -6.533875     1.935081    -0.405603
 C    -5.961113     0.675271    -2.057254
Cl    -7.493228     0.837327    -2.849050
 C    -3.446565    -1.456144     1.754295
 H    -4.087446    -0.577455     1.855992
 C    -1.511422    -2.542918     0.821933
 H    -0.620476    -2.508622     0.194872
 C    -3.786983    -2.618134     2.433907
 H    -4.676219    -2.660485     3.064742
 C    -1.845616    -3.719799     1.490544
 H    -1.231294    -4.615867     1.393426
 C    -2.978276    -3.748776     2.296844
Cl    -3.393608    -5.202886     3.139598
 C     1.718474    -0.283494     2.816742
 H     1.804632     0.801621     2.890814
 C     1.665683    -2.297377     1.491359
 O     1.689264    -2.818961     0.249177
 C     1.837559    -4.200208     0.060812
 H     2.762662    -4.570461     0.533791
 H     1.889243    -4.356787    -1.023145
 H     0.977089    -4.764170     0.459391
 C     1.575354    -1.040691     3.980653
 H     1.542179    -0.542866     4.951931
 C     1.547429    -3.060884     2.653298
 H     1.482992    -4.147761     2.596443
 C     1.493416    -2.426149     3.894416
 H     1.389092    -3.029818     4.798936
 C     3.504595    -0.795133    -2.142414
 H     2.692111    -0.414220    -2.764389
 C     4.416060    -1.214622     0.047799
 H     4.333177    -1.165803     1.136680
 C     4.638041    -1.353866    -2.729061
 H     4.734433    -1.415968    -3.814139
 C     5.551321    -1.779123    -0.523242
 H     6.358231    -2.169758     0.099023
 C     5.654520    -1.845836    -1.913833
Cl     7.063087    -2.553701    -2.630510
 C     3.841361     2.061687     0.386416
 H     4.562851     1.389594    -0.080687
 C     1.609946     2.570201     1.127271
 H     0.560201     2.295936     1.232481
 C     4.271903     3.317089     0.813457
 H     5.311026     3.623201     0.682579
 C     2.029196     3.816139     1.576306
 H     1.321681     4.502511     2.043934
 C     3.364284     4.185879     1.412946
Cl     3.893120     5.743890     1.954392
