  90
scf done:    -2525.367443
 C    -2.156788    -0.905768    -2.971163
 H    -2.851527    -1.751002    -3.026138
 H    -2.626747     0.047523    -3.234852
 C    -0.779393    -1.130372    -3.314656
 H    -0.470712    -2.138251    -3.610773
 H    -0.217007    -0.342070    -3.823855
 H    -0.756696     0.748673    -1.621184
Ir    -0.937779    -0.809249    -1.191806
 C    -3.189492     1.647021     0.234473
 C    -3.860752    -0.985839     0.804451
 C    -1.630303     0.058375     2.177657
 C     1.597782    -0.927466     1.325952
 C     2.565201    -1.447526    -1.326488
 C     1.811384     1.241334    -0.612431
 P     1.257279    -0.496320    -0.458835
 P    -2.336873     0.001861     0.485134
 C    -1.087720    -2.649293    -0.659608
 O    -1.149570    -3.737631    -0.288690
 H    -3.889814     1.408078    -0.581716
 H    -3.799720     1.819557     1.134480
 C    -2.401899     2.875763    -0.114744
 C    -2.241852     3.912717     0.814491
 H    -2.691588     3.824667     1.807490
 C    -1.872081     3.047194    -1.397045
 H    -2.022022     2.260887    -2.139125
 C    -1.549438     5.070286     0.469154
 H    -1.444712     5.878187     1.197843
 C    -1.155693     4.192813    -1.755430
 C    -0.540378     4.300991    -3.118387
 H    -0.315364     5.344231    -3.382277
 H     0.405696     3.735765    -3.149630
 H    -1.198813     3.880808    -3.892905
 C    -1.002107     5.206407    -0.804367
 H    -0.454394     6.114956    -1.069197
 C    -4.327233    -1.878751    -0.163436
 C    -4.599078    -0.812289     1.983767
 C    -6.234511    -2.416087     1.218132
 C    -5.777267    -1.524346     2.189486
 C    -5.509019    -2.590336     0.042105
 H    -3.749846    -2.007023    -1.081089
 H    -5.860001    -3.288601    -0.721405
 H    -7.157451    -2.977671     1.382080
 H    -6.340746    -1.385602     3.115416
 H    -4.241197    -0.126047     2.756201
 C    -1.143970     1.231204     2.764527
 C    -1.448849    -1.160090     2.850407
 C    -0.295656    -0.028781     4.647440
 C    -0.793138    -1.201810     4.075758
 C    -0.476355     1.185581     3.990420
 H    -1.266656     2.187983     2.256361
 H    -0.093822     2.109820     4.430576
 H     0.232379    -0.064423     5.602947
 H    -0.656956    -2.159142     4.584375
 H    -1.815150    -2.086568     2.399369
 H     0.978292    -0.241517     1.919901
 H     1.151429    -1.926075     1.442590
 C     3.024343    -0.915637     1.769598
 C     3.781950    -2.092760     1.752565
 H     3.312314    -3.030612     1.445226
 C     3.649559     0.276224     2.153003
 H     3.067015     1.200214     2.173023
 C     5.130524    -2.066264     2.094265
 H     5.714954    -2.989226     2.068863
 C     5.005590     0.323043     2.490501
 C     5.639781     1.619009     2.907012
 H     5.214813     2.468515     2.352049
 H     5.473575     1.813459     3.979949
 H     6.726638     1.608779     2.740841
 C     5.742262    -0.866520     2.451341
 H     6.805465    -0.851043     2.706977
 C     2.206532    -2.583023    -2.059244
 C     3.923886    -1.114504    -1.211682
 C     4.526953    -3.033685    -2.550062
 C     4.895275    -1.900224    -1.825307
 C     3.181211    -3.375841    -2.663529
 H     1.149013    -2.832893    -2.160403
 H     2.884199    -4.260424    -3.231865
 H     5.291959    -3.650429    -3.028399
 H     5.948905    -1.629114    -1.725425
 H     4.227660    -0.239156    -0.634210
 C     1.406412     2.178510     0.345833
 C     2.525079     1.685398    -1.730765
 C     2.477950     3.953106    -0.891416
 C     2.859629     3.032485    -1.865279
 C     1.742348     3.521745     0.211867
 H     0.811358     1.859682     1.203247
 H     1.412317     4.237677     0.967112
 H     2.740253     5.008320    -0.998546
 H     3.424247     3.362626    -2.740854
 H     2.823793     0.974609    -2.503979
