  90
scf done:    -3294.683735
 C    -1.315680     1.126317     3.144547
 H    -1.861037     2.075233     3.148728
 H    -1.932014     0.258242     3.394416
 C     0.076921     1.125031     3.479331
 H     0.564402     2.069801     3.739234
 H     0.508602     0.253951     3.979054
 H    -0.221889    -0.769482     1.787468
Ir    -0.152634     0.800144     1.350684
 C    -1.381878    -1.035289    -1.571761
 O    -2.963360    -0.645111     0.589098
 O    -2.469323     1.254431    -1.100078
 C     2.952480     1.491166    -0.270058
 O     2.998992    -0.380197     1.515391
 O     1.792105    -0.943866    -0.684116
 P     1.855935     0.247897     0.471338
 P    -1.688970     0.098310    -0.175068
 C    -0.003603     2.689710     0.940118
 O     0.148564     3.802797     0.718739
 C    -1.513232    -0.628883    -2.899778
 H    -1.843231     0.390632    -3.100802
 C    -0.998333    -2.363559    -1.299795
 O    -0.918642    -2.699150    -0.003599
 C    -0.691796    -4.033360     0.355933
 H    -1.478846    -4.695818    -0.043690
 H    -0.716439    -4.064131     1.452137
 H     0.293732    -4.388957     0.008762
 C    -1.269580    -1.510829    -3.952011
 H    -1.387862    -1.177762    -4.984991
 C    -0.754352    -3.251220    -2.351957
 H    -0.459482    -4.280455    -2.149168
 C    -0.890984    -2.820113    -3.669807
 H    -0.698033    -3.524027    -4.482728
 C    -3.842624    -1.517809     0.009949
 C    -4.045035    -2.743084     0.646093
 H    -3.492893    -2.950670     1.563854
 C    -4.535874    -1.210064    -1.161977
 H    -4.376130    -0.244918    -1.643613
 C    -4.933988    -3.669452     0.109467
 H    -5.113892    -4.632981     0.589861
 C    -5.420456    -2.138253    -1.705604
 H    -5.971505    -1.925210    -2.623212
 C    -5.606892    -3.357172    -1.066512
 F    -6.453473    -4.246107    -1.588326
 C    -2.757807     2.503266    -0.624657
 C    -3.362734     2.690596     0.619664
 H    -3.610581     1.823512     1.233711
 C    -2.445127     3.598445    -1.428678
 H    -1.970261     3.427028    -2.395875
 C    -3.633696     3.980665     1.067164
 H    -4.097927     4.156700     2.039064
 C    -2.724646     4.888320    -0.988921
 H    -2.483920     5.762984    -1.595313
 C    -3.308392     5.063880     0.260040
 F    -3.566942     6.298458     0.689614
 C     4.146886     1.888166     0.332779
 H     4.462030     1.387108     1.248721
 C     2.532476     2.129179    -1.453908
 O     1.367661     1.699053    -1.973314
 C     0.900414     2.261843    -3.167515
 H     0.708796     3.342926    -3.057389
 H    -0.040084     1.750229    -3.401275
 H     1.611722     2.098626    -3.995160
 C     4.927350     2.897727    -0.226418
 H     5.860972     3.197131     0.253440
 C     3.316268     3.138259    -2.018946
 H     3.004934     3.634290    -2.937905
 C     4.507610     3.514769    -1.400768
 H     5.111946     4.306255    -1.850380
 C     2.701772    -1.282362     2.497796
 C     3.103377    -0.995754     3.801867
 H     3.599533    -0.045477     4.005466
 C     2.050128    -2.481922     2.208339
 H     1.735993    -2.681390     1.183481
 C     2.860336    -1.909971     4.822768
 H     3.163093    -1.708764     5.851774
 C     1.801481    -3.396381     3.228074
 H     1.297138    -4.344451     3.032771
 C     2.208915    -3.100600     4.522943
 F     1.971902    -3.979131     5.497610
 C     2.747509    -1.172903    -1.637665
 C     4.091697    -1.363795    -1.313812
 H     4.407632    -1.314799    -0.271208
 C     2.324386    -1.231172    -2.965445
 H     1.267308    -1.079718    -3.185547
 C     5.016591    -1.607678    -2.326707
 H     6.074538    -1.756155    -2.103574
 C     3.245542    -1.482809    -3.977160
 H     2.939944    -1.538649    -5.023597
 C     4.583592    -1.663856    -3.645131
 F     5.469615    -1.899107    -4.614623
