 100
scf done:    -2853.215168
 C    -0.112460    -3.021739    -2.284101
 H     0.254382    -2.919958    -3.310943
 H     0.432933    -3.768093    -1.698351
 C    -1.511172    -2.827550    -2.023347
 H    -2.175738    -2.581862    -2.858648
 H    -1.990779    -3.419264    -1.237934
 H    -0.242678    -2.088573     0.092056
Ir    -0.393053    -1.150835    -1.246640
 C     2.088556    -0.411728     1.201683
 C     2.957192    -1.867522    -1.117118
 C     2.510090     1.022417    -1.336448
 C    -1.963696     1.777956     0.300578
 C    -3.658103    -0.099253    -1.113084
 C    -2.628188    -0.665194     1.557691
 P    -2.083454    -0.020645    -0.102797
 P     1.751084    -0.537785    -0.601846
 C    -0.494352    -0.074799    -2.822215
 O    -0.525901     0.599356    -3.756855
 H     3.129526    -0.085506     1.353104
 H     2.000865    -1.440838     1.585940
 C     1.126376     0.521101     1.918790
 H     0.984476     1.431551     1.317428
 H     0.138110     0.036417     1.966360
 C     1.564938     0.945150     3.319463
 H     2.551198     1.435630     3.216563
 C     0.590146     1.973007     3.881245
 H     0.510586     2.849798     3.219154
 H     0.903950     2.329559     4.874373
 H    -0.419818     1.541239     3.988470
 C     1.720577    -0.242467     4.261663
 H     2.041675     0.081893     5.263442
 H     2.465405    -0.964918     3.894818
 H     0.762896    -0.778324     4.379620
 H     2.596309    -2.767724    -0.595436
 H     2.753016    -2.032430    -2.185189
 C     4.411961    -1.624975    -0.872281
 C     5.237332    -1.135674    -1.894680
 H     4.820665    -0.982404    -2.893801
 C     4.991463    -1.848647     0.385288
 H     4.381734    -2.257891     1.193732
 C     6.581838    -0.846378    -1.671805
 H     7.225344    -0.464791    -2.466386
 C     6.331737    -1.563520     0.628271
 H     6.785403    -1.735208     1.606048
 C     7.111532    -1.056250    -0.405049
 F     8.394395    -0.780191    -0.178556
 H     3.241863     0.681660    -2.084356
 H     1.700342     1.518104    -1.888845
 C     3.150737     1.984120    -0.379795
 C     2.443732     3.103700     0.076877
 H     1.437785     3.292187    -0.302661
 C     4.447605     1.783485     0.112566
 H     5.031156     0.929182    -0.233688
 C     2.990367     3.985037     1.005912
 H     2.438533     4.857598     1.360291
 C     5.012198     2.654265     1.040625
 H     6.022401     2.498994     1.423646
 C     4.272008     3.743563     1.483675
 F     4.805035     4.577738     2.375553
 H    -1.273937     1.853472     1.156273
 H    -2.950735     2.121753     0.649642
 C    -1.442562     2.618883    -0.852947
 H    -0.470217     2.202421    -1.164554
 H    -2.095239     2.512179    -1.737889
 C    -1.274963     4.108646    -0.542279
 H    -0.604707     4.186603     0.336243
 C    -0.608702     4.820168    -1.714909
 H     0.359492     4.365234    -1.976138
 H    -0.431339     5.883705    -1.492918
 H    -1.246199     4.768671    -2.612906
 C    -2.590251     4.789758    -0.179525
 H    -2.430492     5.852416     0.059381
 H    -3.078509     4.324331     0.689254
 H    -3.298448     4.744365    -1.023611
 H    -3.357177     0.224470    -2.120945
 H    -3.879527    -1.173662    -1.198015
 C    -4.834973     0.687216    -0.625894
 C    -5.759485     0.153238     0.282983
 H    -5.658398    -0.881865     0.615797
 C    -5.034573     2.007941    -1.053034
 H    -4.345466     2.444673    -1.779343
 C    -6.826243     0.906661     0.767266
 H    -7.547442     0.488776     1.471830
 C    -6.092646     2.777975    -0.580475
 H    -6.245202     3.806132    -0.913679
 C    -6.976060     2.217231     0.333532
 F    -7.991222     2.946278     0.793299
 H    -1.961432    -0.187150     2.290446
 H    -3.638860    -0.270622     1.749573
 C    -2.569430    -2.153989     1.709617
 C    -3.560313    -2.990746     1.183616
 H    -4.423427    -2.559459     0.673085
 C    -1.480879    -2.754534     2.354146
 H    -0.691600    -2.124118     2.770228
 C    -3.472780    -4.376827     1.286317
 H    -4.243151    -5.031121     0.874815
 C    -1.375740    -4.136632     2.471173
 H    -0.528366    -4.606185     2.973638
 C    -2.375092    -4.934192     1.928506
 F    -2.282609    -6.259219     2.033233
