 106
scf done:    -2983.309883
 C     1.648170     1.042602    -3.648423
 H     2.659519     1.460805    -3.643470
 H     1.533278     0.183688    -4.316212
 C     0.530694     1.916376    -3.428578
 H     0.713186     2.983111    -3.266035
 H    -0.425127     1.707612    -3.916475
 H    -0.181412    -0.335131    -2.462697
Ir     0.819339     0.690321    -1.677807
 C     1.355162    -2.854356    -1.531769
 O     3.401400    -1.388342    -0.933658
 O     1.459608    -1.413447     0.798867
 C    -1.774536    -0.596153     0.295423
 O    -1.164803     2.010750     0.808698
 O    -2.318048     1.524229    -1.377184
 P    -1.089788     0.931130    -0.460086
 P     1.748021    -1.195231    -0.836402
 C     1.984055     2.029770    -0.894906
 O     2.656714     2.873769    -0.515251
 H     1.695115    -2.791268    -2.576433
 H     1.994079    -3.585652    -1.014716
 C    -0.094919    -3.223885    -1.439964
 C    -0.594838    -3.874793    -0.305987
 H     0.082365    -4.157538     0.502743
 C    -0.983959    -2.883415    -2.465522
 H    -0.598503    -2.381851    -3.356617
 C    -1.955312    -4.150267    -0.199289
 H    -2.339161    -4.644599     0.696017
 C    -2.353917    -3.150592    -2.373470
 C    -3.285244    -2.774121    -3.489074
 H    -4.276816    -2.492801    -3.104777
 H    -2.890628    -1.929799    -4.072595
 H    -3.430862    -3.616573    -4.185587
 C    -2.829913    -3.785967    -1.220339
 H    -3.898608    -3.995430    -1.121574
 C     4.241805    -0.313193    -0.772277
 C     4.462391     0.216019     0.497766
 H     3.946849    -0.224806     1.353810
 C     4.870284     0.221384    -1.893532
 H     4.667906    -0.211627    -2.873993
 C     5.320092     1.307091     0.667633
 C     5.511080     1.926567     2.019840
 H     5.364569     1.193854     2.826501
 H     6.514814     2.362549     2.126673
 H     4.777167     2.735409     2.169673
 C     5.732994     1.300993    -1.726211
 H     6.233616     1.732382    -2.596278
 C     5.954541     1.839169    -0.460677
 H     6.627027     2.692948    -0.344777
 C     1.796719    -2.427821     1.651531
 C     2.970431    -3.170830     1.531023
 H     3.662761    -2.953408     0.716635
 C     0.907889    -2.669348     2.704512
 H    -0.006154    -2.076783     2.781297
 C     3.263979    -4.183275     2.455538
 C     4.527822    -4.979979     2.307467
 H     4.527724    -5.552614     1.366265
 H     5.410806    -4.322450     2.283233
 H     4.655532    -5.691358     3.134915
 C     1.202746    -3.668719     3.623081
 H     0.510718    -3.863046     4.445963
 C     2.369386    -4.425198     3.500734
 H     2.589313    -5.210019     4.228542
 H    -2.055620    -1.225092    -0.563249
 H    -0.875687    -1.065389     0.723808
 C    -2.873311    -0.529865     1.312196
 C    -2.652095     0.016477     2.581064
 H    -1.670517     0.417593     2.841720
 C    -4.139786    -1.043717     1.014555
 H    -4.314960    -1.470480     0.024242
 C    -3.688508     0.065131     3.510947
 H    -3.508905     0.499236     4.497753
 C    -5.190287    -0.998628     1.932183
 C    -6.544237    -1.545055     1.583537
 H    -6.604123    -1.814333     0.520000
 H    -6.778626    -2.443800     2.177349
 H    -7.334960    -0.806251     1.786961
 C    -4.948697    -0.432234     3.190249
 H    -5.757353    -0.384415     3.925496
 C    -0.085090     2.440580     1.522765
 C     0.078927     3.814707     1.688829
 H    -0.640993     4.483723     1.212283
 C     0.814508     1.541343     2.097268
 H     0.705145     0.468200     1.938145
 C     1.145552     4.319481     2.436285
 C     1.349480     5.800545     2.568209
 H     1.939706     6.186525     1.720338
 H     0.392613     6.342282     2.573801
 H     1.894025     6.052605     3.489486
 C     1.875125     2.042001     2.847603
 H     2.582208     1.344863     3.303212
 C     2.039990     3.413499     3.020603
 H     2.874785     3.791440     3.616790
 C    -3.658997     1.458314    -1.094382
 C    -4.204322     2.132745    -0.005491
 H    -3.539675     2.693753     0.653082
 C    -4.466310     0.722279    -1.961267
 H    -4.006527     0.219588    -2.813642
 C    -5.574953     2.049350     0.258740
 C    -6.147717     2.719461     1.472700
 H    -5.886621     2.148406     2.378697
 H    -5.744829     3.735363     1.599527
 H    -7.243455     2.787709     1.418584
 C    -5.833019     0.651489    -1.710378
 H    -6.478239     0.080932    -2.383275
 C    -6.382460     1.303579    -0.607279
 H    -7.456386     1.235787    -0.415227
