  88
scf done:    -2945.979242
 C    -1.476372    -2.990545     2.272932
 H    -2.040597    -2.863594     3.202254
 H    -2.026847    -3.533467     1.498445
 C    -0.050052    -3.127705     2.331203
 H     0.448313    -3.098762     3.305057
 H     0.458482    -3.756698     1.595836
 H    -0.534926    -1.994288     0.116201
Ir    -0.550520    -1.179546     1.525535
 C    -3.966740    -0.579287     0.773267
 O    -2.518833     1.553905     0.987460
 O    -2.171764     0.216576    -1.098583
 C     2.273102     0.989490     1.636573
 O     2.619299    -1.333479     0.460884
 O     1.160013     0.390241    -0.819176
 P     1.355673    -0.278153     0.681123
 P    -2.235545    -0.014423     0.548741
 C    -0.500844    -0.349822     3.268356
 O    -0.448230     0.097973     4.323704
 H    -3.962319    -1.651233     0.523532
 H    -4.141762    -0.513136     1.858560
 C    -4.985255     0.181130    -0.017958
 C    -5.571353     1.343092     0.497452
 H    -5.299286     1.682765     1.499047
 C    -5.331563    -0.223253    -1.312331
 H    -4.877465    -1.120537    -1.740273
 C    -6.485453     2.079259    -0.249815
 H    -6.950196     2.984744     0.144231
 C    -6.242942     0.502216    -2.073835
 H    -6.519324     0.193299    -3.083376
 C    -6.809453     1.647951    -1.530184
 F    -7.684793     2.347999    -2.251553
 C    -1.527803     2.478784     1.166521
 C    -0.933392     3.091391     0.063952
 H    -1.254969     2.790122    -0.933888
 C    -1.162728     2.840220     2.463090
 H    -1.646926     2.350076     3.308540
 C     0.030321     4.076791     0.266848
 H     0.491583     4.565592    -0.594757
 C    -0.192864     3.822122     2.655189
 H     0.094710     4.102752     3.670976
 C     0.406282     4.443861     1.559582
 H     1.162872     5.216294     1.713348
 C    -1.731268    -0.670330    -2.033489
 C    -0.959311    -0.172208    -3.083779
 H    -0.711899     0.888615    -3.098361
 C    -2.054859    -2.028923    -1.989999
 H    -2.652294    -2.426215    -1.168658
 C    -0.503053    -1.030169    -4.078757
 H     0.111973    -0.630223    -4.888148
 C    -1.596345    -2.880868    -2.993693
 H    -1.850627    -3.942392    -2.948194
 C    -0.817981    -2.389529    -4.039555
 H    -0.458392    -3.060885    -4.822317
 H     1.550831     1.811884     1.761088
 H     2.404014     0.526979     2.628502
 C     3.571737     1.472264     1.064898
 C     4.734384     0.698513     1.160143
 H     4.703452    -0.254931     1.690446
 C     3.634667     2.690161     0.378578
 H     2.735277     3.303234     0.298174
 C     5.921450     1.112677     0.564099
 H     6.832328     0.514547     0.625726
 C     4.812100     3.117670    -0.225367
 H     4.863584     4.056150    -0.779240
 C     5.941434     2.315104    -0.131578
 F     7.071769     2.709180    -0.718470
 C     2.496093    -2.587777    -0.074686
 C     3.212043    -3.615105     0.540015
 H     3.802054    -3.385347     1.429008
 C     1.724484    -2.837617    -1.211054
 H     1.168233    -2.031987    -1.693285
 C     3.149795    -4.904279     0.019503
 H     3.708180    -5.708498     0.504405
 C     1.666018    -4.135121    -1.716855
 H     1.056001    -4.326755    -2.601968
 C     2.372704    -5.170649    -1.108499
 H     2.321104    -6.183691    -1.513201
 C     2.064364     0.919669    -1.705175
 C     3.280217     0.308774    -2.017592
 H     3.578782    -0.609988    -1.518089
 C     1.686149     2.096919    -2.353342
 H     0.729180     2.548825    -2.095439
 C     4.122580     0.907445    -2.951607
 H     5.081493     0.435097    -3.176978
 C     2.531783     2.678446    -3.293536
 H     2.227271     3.601793    -3.792483
 C     3.759645     2.090511    -3.592844
 H     4.429282     2.549593    -4.322992
