  86
scf done:    -2073.268571
 C     2.945000     1.592697    -1.963384
 H     3.865555     1.947704    -1.487215
 H     3.128947     0.886414    -2.779542
 C     1.822489     2.491525    -2.065891
 H     1.923694     3.505567    -1.663653
 H     1.188952     2.449802    -2.956220
 H     0.837083     0.126615    -1.897828
Ir     1.402503     0.966032    -0.603055
 C     1.865238    -2.568903    -0.900174
 C     4.057840    -1.073934     0.197073
 C     1.764357    -1.719277     1.837720
 C    -1.458343    -0.315206     1.123948
 C    -1.288999     2.545958     1.030992
 C    -2.096357     1.031394    -1.322779
 P    -0.844594     1.063625     0.028684
 P     2.209923    -1.083225     0.163324
 C     2.029512     2.041976     0.842371
 O     2.377532     2.726057     1.702557
 H     2.248954    -2.299594    -1.895522
 H     2.464717    -3.411231    -0.520565
 C     0.419510    -2.959881    -0.974699
 C    -0.134771    -3.830970    -0.029002
 H     0.497321    -4.247980     0.759053
 C    -0.410631    -2.460865    -1.986818
 H     0.014880    -1.779151    -2.726703
 C    -1.482747    -4.178667    -0.091719
 H    -1.904907    -4.855261     0.655035
 C    -1.760521    -2.812638    -2.075620
 C    -2.622370    -2.298572    -3.192960
 H    -2.097475    -1.539772    -3.789507
 H    -2.916609    -3.114933    -3.872240
 H    -3.552446    -1.847393    -2.811708
 C    -2.290253    -3.675373    -1.107094
 H    -3.344325    -3.963212    -1.156563
 H     4.354890    -0.896337    -0.850736
 H     4.331982    -0.147489     0.729308
 C     4.798245    -2.268099     0.783020
 H     4.478536    -3.198514     0.283477
 H     4.529379    -2.387543     1.846014
 C     6.308812    -2.127215     0.661347
 H     6.617848    -2.046751    -0.392915
 H     6.665850    -1.222090     1.177862
 H     6.832352    -2.990802     1.099056
 H     0.698870    -1.991531     1.789237
 H     2.317507    -2.655283     2.029176
 C     1.994039    -0.715827     2.957632
 H     1.458282     0.216558     2.715641
 H     3.061063    -0.436796     3.001958
 C     1.540732    -1.233642     4.313631
 H     0.465058    -1.474097     4.306491
 H     2.080110    -2.152145     4.595260
 H     1.711801    -0.489617     5.106242
 H    -1.215297    -1.239519     0.577086
 H    -0.808466    -0.278947     2.011352
 C    -2.903473    -0.282307     1.513050
 C    -3.330931     0.386270     2.667175
 H    -2.594599     0.863137     3.319554
 C    -3.867222    -0.908593     0.714392
 H    -3.535837    -1.461248    -0.168006
 C    -4.684065     0.434278     2.993476
 H    -5.005481     0.952589     3.900363
 C    -5.229567    -0.866090     1.022273
 C    -6.235235    -1.520941     0.119541
 H    -6.588534    -0.817228    -0.652939
 H    -5.802074    -2.386892    -0.402642
 H    -7.119076    -1.863558     0.677003
 C    -5.628815    -0.182136     2.176268
 H    -6.688740    -0.142343     2.442213
 H    -2.349771     2.482542     1.325814
 H    -0.693220     2.450050     1.956578
 C    -0.987939     3.884566     0.368018
 H    -1.711400     4.060324    -0.445340
 H     0.002340     3.835353    -0.113878
 C    -1.031696     5.043625     1.351270
 H    -2.011246     5.113440     1.851418
 H    -0.265584     4.921511     2.133685
 H    -0.843691     6.004659     0.848728
 H    -2.202988    -0.030978    -1.595334
 H    -3.064728     1.343428    -0.895161
 C    -1.753595     1.839389    -2.565943
 H    -0.819244     1.441799    -2.991101
 H    -1.529202     2.882913    -2.293509
 C    -2.867449     1.806773    -3.601050
 H    -3.093925     0.774624    -3.913455
 H    -3.800073     2.239223    -3.203746
 H    -2.594709     2.375167    -4.503317
