  96
scf done:    -3199.086933
 C     0.214937    -3.863563    -0.919242
 H    -0.098852    -4.536290    -0.113671
 H    -0.394786    -3.957017    -1.823658
 C     1.612433    -3.546221    -1.049414
 H     2.326954    -3.973562    -0.340055
 H     2.031921    -3.397527    -2.048795
 H     0.322156    -1.505625    -1.917246
Ir     0.546746    -1.825891    -0.312710
 C    -1.688300     0.754088    -1.183287
 C    -2.888624    -1.948615    -0.716721
 C    -2.010210    -0.271482     1.601522
 C     1.452496     1.597758     0.347267
 C     3.635395    -0.301617     0.613306
 C     2.622025     0.380023    -2.054158
 P     2.054453    -0.054447    -0.332250
 P    -1.539223    -0.792018    -0.136467
 C     0.753423    -2.232685     1.537231
 O     0.848347    -2.433050     2.668925
 H    -1.393048     1.587116    -0.529180
 H    -0.885807     0.623731    -1.922741
 C    -2.977384     1.066964    -1.878319
 C    -3.257097     0.502550    -3.130981
 H    -2.522692    -0.158268    -3.600098
 C    -3.920848     1.939203    -1.321607
 H    -3.719271     2.407097    -0.357605
 C    -4.449326     0.773334    -3.798930
 H    -4.672267     0.337057    -4.774166
 C    -5.116082     2.223097    -1.975341
 H    -5.853446     2.901130    -1.541950
 C    -5.369784     1.630098    -3.206371
 F    -6.512224     1.895991    -3.836957
 H    -2.937104    -1.810210    -1.807059
 H    -2.437540    -2.937086    -0.553116
 C    -4.250616    -1.893200    -0.096987
 C    -4.514950    -2.619707     1.073185
 H    -3.726233    -3.236243     1.513502
 C    -5.296042    -1.151213    -0.660674
 H    -5.126782    -0.596568    -1.583461
 C    -5.766918    -2.585885     1.683644
 H    -5.976699    -3.150324     2.593873
 C    -6.554000    -1.107830    -0.067045
 H    -7.368856    -0.528788    -0.505274
 C    -6.773180    -1.820988     1.105483
 F    -7.974077    -1.781015     1.680418
 H    -2.463723    -1.163997     2.058599
 H    -1.041500    -0.132146     2.103017
 C    -2.867299     0.939335     1.814878
 C    -2.279904     2.208307     1.924005
 H    -1.191848     2.309702     1.880329
 C    -4.260147     0.849329     1.932112
 H    -4.743720    -0.125500     1.877603
 C    -3.049854     3.354782     2.108628
 H    -2.594045     4.342517     2.196067
 C    -5.045385     1.982430     2.120337
 H    -6.130789     1.910959     2.210002
 C    -4.430746     3.226463     2.197749
 F    -5.176896     4.315302     2.373877
 H     1.289482     2.262117    -0.513660
 H     0.466647     1.364857     0.767694
 C     2.298821     2.266400     1.384805
 C     2.101724     1.979504     2.742515
 H     1.307083     1.287686     3.037701
 C     3.323433     3.155953     1.037329
 H     3.494424     3.398544    -0.013077
 C     2.902107     2.551650     3.727924
 H     2.752551     2.332857     4.786641
 C     4.131811     3.737200     2.009621
 H     4.930163     4.432922     1.745084
 C     3.912914     3.424801     3.346078
 F     4.684549     3.977236     4.280026
 H     4.335972     0.506262     0.350425
 H     3.366644    -0.137351     1.666797
 C     4.244162    -1.662293     0.454007
 C     4.101308    -2.616503     1.468776
 H     3.555607    -2.356077     2.378237
 C     4.949768    -2.032736    -0.697350
 H     5.089847    -1.315633    -1.508678
 C     4.631878    -3.897001     1.343686
 H     4.519246    -4.641532     2.133628
 C     5.487022    -3.308823    -0.842706
 H     6.035994    -3.600055    -1.739766
 C     5.317725    -4.229832     0.182675
 F     5.829436    -5.452546     0.052680
 H     3.162075    -0.513682    -2.402177
 H     1.693779     0.414470    -2.642539
 C     3.412356     1.638641    -2.224585
 C     2.770811     2.826232    -2.606845
 H     1.700373     2.809599    -2.829770
 C     4.793667     1.692048    -1.987820
 H     5.335432     0.784362    -1.715313
 C     3.465077     4.027734    -2.724374
 H     2.966177     4.950936    -3.024167
 C     5.505410     2.883375    -2.098569
 H     6.580288     2.925274    -1.914318
 C     4.829077     4.042441    -2.459770
 F     5.502884     5.184807    -2.567115
