 110
scf done:    -2387.528095
 C     2.271391    -2.658114    -2.177406
 H     3.097317    -2.331076    -2.818357
 H     2.576804    -3.391284    -1.423529
 C     0.949397    -2.755740    -2.745835
 H     0.809964    -2.499031    -3.801215
 H     0.288489    -3.562238    -2.411697
 H     0.619417    -2.178979    -0.264113
Ir     1.033364    -1.074184    -1.406835
 C     2.785320    -1.212962     1.685705
 C     4.051604     0.271435    -0.419526
 C     1.869263     1.450581     1.079860
 C    -1.664528     0.996755    -2.248637
 C    -2.444359    -1.636311    -1.366511
 C    -1.574562     0.287610     0.608167
 P    -1.154229    -0.358409    -1.070928
 P     2.369175    -0.114209     0.242762
 C     1.495288     0.205911    -2.742639
 O     1.768907     1.010025    -3.522536
 H     2.965556    -2.203863     1.243553
 H     3.730406    -0.858491     2.124831
 C     1.726146    -1.272596     2.745766
 C     1.807063    -0.442743     3.870582
 H     2.658080     0.234859     3.981187
 C     0.632837    -2.140678     2.634888
 H     0.563591    -2.788289     1.757520
 C     0.823579    -0.488840     4.855562
 H     0.903686     0.155343     5.734659
 C    -0.366846    -2.194691     3.611488
 C    -1.548600    -3.106431     3.452743
 H    -2.417671    -2.554824     3.055155
 H    -1.334442    -3.926331     2.753499
 H    -1.855507    -3.542474     4.414892
 C    -0.254704    -1.359857     4.729312
 H    -1.020821    -1.394588     5.508653
 H     3.889003     0.781689    -1.383188
 H     4.465028    -0.716101    -0.681809
 C     5.005287     1.075793     0.449836
 H     4.576990     2.076783     0.626678
 H     5.109702     0.611601     1.447892
 C     6.406116     1.253557    -0.146426
 H     6.280551     1.678306    -1.160226
 C     7.211335     2.247977     0.682272
 H     6.702995     3.222597     0.749965
 H     8.209079     2.418008     0.249045
 H     7.355359     1.875004     1.710315
 C     7.152163    -0.069398    -0.280086
 H     8.154751     0.083729    -0.708090
 H     6.624427    -0.782989    -0.930047
 H     7.281483    -0.545871     0.706552
 H     2.662619     1.766077     1.779016
 H     0.994598     1.193394     1.695645
 C     1.538523     2.560924     0.095268
 H     2.379201     2.703634    -0.606241
 H     0.690593     2.237203    -0.534020
 C     1.214457     3.913669     0.736356
 H     2.110491     4.230430     1.303235
 C     0.951191     4.957411    -0.343043
 H     1.799678     5.041664    -1.039567
 H     0.771080     5.952392     0.092562
 H     0.062321     4.689806    -0.939185
 C     0.049687     3.841584     1.717807
 H    -0.146628     4.826421     2.169122
 H     0.235798     3.133461     2.538906
 H    -0.876373     3.523229     1.211046
 H    -0.829683     1.713150    -2.244742
 H    -1.658511     0.516901    -3.240069
 C    -2.957221     1.691763    -1.968040
 C    -4.178641     1.189254    -2.430337
 H    -4.192105     0.309212    -3.078149
 C    -2.969717     2.842958    -1.169891
 H    -2.017262     3.256533    -0.826167
 C    -5.374244     1.803819    -2.062626
 H    -6.323928     1.402920    -2.425492
 C    -4.157153     3.466581    -0.782954
 C    -4.141804     4.667176     0.117709
 H    -3.120726     5.045292     0.267962
 H    -4.753174     5.486176    -0.291222
 H    -4.554902     4.417702     1.108981
 C    -5.367185     2.924627    -1.236520
 H    -6.311428     3.394682    -0.947911
 H    -2.357965    -1.918659    -2.429168
 H    -3.431416    -1.168388    -1.228102
 C    -2.286955    -2.866838    -0.485825
 H    -1.314648    -3.331882    -0.711145
 H    -2.231513    -2.567495     0.575875
 C    -3.403130    -3.902182    -0.643957
 H    -3.494653    -4.128316    -1.723303
 C    -3.033256    -5.194911     0.074329
 H    -2.078812    -5.601170    -0.294770
 H    -3.805647    -5.967872    -0.061368
 H    -2.925278    -5.022010     1.158166
 C    -4.750281    -3.379849    -0.155050
 H    -5.542911    -4.132154    -0.289708
 H    -5.065112    -2.470264    -0.688444
 H    -4.704152    -3.135225     0.919976
 H    -1.137870     1.299424     0.635410
 H    -0.969034    -0.313958     1.304340
 C    -3.037975     0.330975     1.041137
 H    -3.684554     0.600300     0.193885
 H    -3.360800    -0.676487     1.358363
 C    -3.314449     1.324408     2.171963
 H    -2.978578     2.315727     1.813451
 C    -4.810536     1.415579     2.443941
 H    -5.362574     1.696168     1.533197
 H    -5.033654     2.160801     3.223793
 H    -5.206733     0.445854     2.789572
 C    -2.537871     0.997678     3.440305
 H    -2.733520     1.739672     4.230297
 H    -1.451390     0.970774     3.271660
 H    -2.829300     0.009287     3.833155
