 108
scf done:    -2659.664686
 C    -1.205605    -2.841084    -1.780393
 H    -1.648799    -3.627185    -1.159637
 H    -1.907450    -2.427538    -2.513149
 C     0.182097    -2.937918    -2.136405
 H     0.759029    -3.791730    -1.765534
 H     0.501878    -2.594338    -3.124304
 H    -0.337674    -0.439715    -2.058142
Ir    -0.087819    -1.341091    -0.707303
 C    -2.820725     0.599933    -1.381768
 C    -3.348472    -1.350694     0.714240
 C    -1.971955     1.153562     1.359580
 C     2.129870     0.473239     1.329946
 C     3.468325    -0.781709    -0.953042
 C     1.655940     1.596513    -1.408946
 P     1.837826    -0.007221    -0.472550
 P    -1.997687    -0.208066     0.089743
 C     0.403538    -2.367518     0.822005
 O     0.810213    -2.925027     1.747859
 H    -2.135291     1.403410    -1.690929
 H    -2.748904    -0.168317    -2.164338
 C    -4.228548     1.083841    -1.237690
 C    -5.297499     0.273187    -1.643697
 H    -5.088699    -0.691124    -2.114259
 C    -4.530015     2.328270    -0.667127
 H    -3.719631     2.995530    -0.365525
 C    -6.620184     0.662233    -1.452593
 H    -7.454344     0.030167    -1.762330
 C    -5.846452     2.735523    -0.468571
 H    -6.085752     3.701956    -0.021269
 C    -6.878766     1.889448    -0.855126
 F    -8.140938     2.270257    -0.663308
 H    -3.777974    -1.722317    -0.235873
 C    -4.480269    -0.695829     1.515457
 H    -4.878042     0.190315     1.004344
 H    -4.084522    -0.349095     2.485469
 C    -5.608655    -1.689212     1.777372
 H    -6.408479    -1.200241     2.357001
 H    -6.060478    -1.980006     0.811610
 C    -5.104111    -2.931752     2.500167
 H    -5.921939    -3.656919     2.641834
 H    -4.763461    -2.646188     3.512162
 C    -3.945517    -3.572298     1.745927
 H    -4.314892    -3.971347     0.783470
 H    -3.548390    -4.434666     2.305522
 C    -2.824387    -2.576949     1.464980
 H    -2.361073    -2.263599     2.417056
 H    -2.030071    -3.057205     0.879877
 H    -3.020607     1.466541     1.508006
 C    -1.171976     2.368117     0.893492
 H    -1.576743     2.772241    -0.047363
 H    -0.146658     2.042870     0.662101
 C    -1.129879     3.465498     1.951752
 H    -0.520515     4.310482     1.590602
 H    -2.150344     3.861468     2.104870
 C    -0.590320     2.943598     3.278052
 H    -0.608535     3.738645     4.040688
 H     0.470821     2.660037     3.155191
 C    -1.380671     1.730317     3.752541
 H    -2.412888     2.042152     3.994465
 H    -0.950665     1.330950     4.685161
 C    -1.426227     0.634858     2.691912
 H    -0.413351     0.232590     2.525456
 H    -2.031105    -0.209795     3.053650
 H     1.573120     1.406292     1.488212
 H     1.581927    -0.301738     1.881682
 C     3.512371     0.575757     1.897928
 C     4.184077    -0.584943     2.307517
 H     3.674787    -1.550263     2.239189
 C     4.167787     1.803349     2.057368
 H     3.660690     2.727532     1.772742
 C     5.481441    -0.534663     2.808948
 H     6.008744    -1.436809     3.124249
 C     5.463197     1.874294     2.562513
 H     5.978438     2.828608     2.685267
 C     6.111112     0.698695     2.920579
 F     7.353874     0.757213     3.397022
 H     3.655702    -1.439402    -0.082926
 C     4.674365     0.152313    -1.090246
 H     4.768664     0.818536    -0.223703
 H     4.533144     0.797523    -1.973741
 C     5.961993    -0.648893    -1.265958
 H     6.817574     0.037740    -1.373248
 H     6.146132    -1.230508    -0.344712
 C     5.877933    -1.592882    -2.458891
 H     6.799000    -2.192477    -2.543057
 H     5.809956    -0.996110    -3.386911
 C     4.655861    -2.498144    -2.357999
 H     4.780500    -3.181803    -1.498326
 H     4.573772    -3.138072    -3.251626
 C     3.369314    -1.700457    -2.171438
 H     3.175207    -1.099902    -3.076471
 H     2.506671    -2.367050    -2.054089
 H     0.584628     1.804824    -1.246135
 C     1.820390     1.394487    -2.917363
 H     1.230318     0.522623    -3.239325
 H     2.875210     1.175590    -3.152171
 C     1.391974     2.643606    -3.679911
 H     1.537081     2.492732    -4.761824
 H     0.308272     2.802372    -3.531133
 C     2.154544     3.874775    -3.204873
 H     1.810634     4.774697    -3.740026
 H     3.224753     3.755503    -3.453922
 C     2.011201     4.065909    -1.699697
 H     0.955487     4.292838    -1.462258
 H     2.598531     4.935385    -1.362157
 C     2.432742     2.819314    -0.923886
 H     3.516613     2.658723    -1.040089
 H     2.252811     2.986714     0.148828
