  84
scf done:    -2493.872052
 C     3.909119     1.449088    -0.619305
 H     4.638814     1.223508     0.165747
 H     4.192749     1.054143    -1.598590
 C     3.188204     2.691401    -0.555601
 H     3.387284     3.379627     0.272292
 H     2.947348     3.200532    -1.493608
 H     1.602751     1.024976    -1.714825
Ir     1.849595     1.055542    -0.092610
 C     0.289407    -1.693314    -1.622911
 O     2.428698    -2.361178    -0.184319
 O     0.361709    -1.624327     1.098503
 C    -1.253063     1.173064     1.571784
 O    -0.801396     3.283445     0.043864
 O    -1.303495     1.059509    -1.116713
 P    -0.350369     1.703063     0.057815
 P     1.295388    -1.168456    -0.176896
 C     2.213843     1.107375     1.795936
 O     2.428203     1.123960     2.923529
 H    -0.314889    -0.812307    -1.876727
 H     1.020113    -1.849840    -2.432010
 C    -0.580114    -2.887357    -1.388827
 C    -0.053222    -4.183162    -1.318816
 H     1.020539    -4.330875    -1.455214
 C    -1.955516    -2.715557    -1.189433
 H    -2.375807    -1.707957    -1.225390
 C    -0.873412    -5.279016    -1.062715
 H    -0.474060    -6.293448    -1.007892
 C    -2.790742    -3.801681    -0.938545
 H    -3.864775    -3.675779    -0.788759
 C    -2.235930    -5.073850    -0.877573
 F    -3.025877    -6.120707    -0.637448
 C     3.836160    -2.102467    -0.157545
 H     3.994937    -1.130849     0.342718
 C     4.347699    -2.010070    -1.580604
 H     3.833427    -1.198582    -2.116023
 H     4.168838    -2.955698    -2.116029
 H     5.427400    -1.799083    -1.595718
 C     4.485667    -3.211640     0.641643
 H     4.085512    -3.245376     1.664910
 H     4.301604    -4.187974     0.167175
 H     5.572986    -3.055552     0.700292
 C     0.561365    -2.779018     1.924368
 H     1.067959    -3.553452     1.327724
 C    -0.803206    -3.280782     2.342582
 H    -1.405589    -3.538705     1.461215
 H    -1.337559    -2.513231     2.924096
 H    -0.703768    -4.178424     2.970795
 C     1.440300    -2.392914     3.098285
 H     2.410476    -2.008847     2.751790
 H     0.960418    -1.603663     3.696964
 H     1.625730    -3.260629     3.749340
 H    -0.818696     0.199154     1.837465
 H    -0.964034     1.900633     2.347095
 C    -2.735091     1.065598     1.400264
 C    -3.551871     2.199846     1.311479
 H    -3.100194     3.190551     1.396325
 C    -3.328369    -0.195205     1.263204
 H    -2.700169    -1.087396     1.315411
 C    -4.922716     2.082161     1.096776
 H    -5.569135     2.959067     1.027856
 C    -4.698434    -0.330500     1.052384
 H    -5.168514    -1.310525     0.950392
 C    -5.480261     0.814942     0.970899
 F    -6.793073     0.697315     0.768935
 C     0.096816     4.348205    -0.293068
 H     0.901937     3.930721    -0.920759
 C     0.705926     4.895977     0.980862
 H     1.264732     4.105609     1.502965
 H    -0.080756     5.274776     1.651883
 H     1.402460     5.718292     0.759169
 C    -0.691445     5.378254    -1.073300
 H    -1.110592     4.941490    -1.991033
 H    -1.522166     5.769983    -0.466199
 H    -0.044118     6.221099    -1.357393
 C    -2.094340     1.803695    -2.047636
 H    -2.437449     2.724925    -1.549822
 C    -3.296867     0.953762    -2.395312
 H    -3.862333     0.702842    -1.487254
 H    -2.985215     0.018927    -2.886859
 H    -3.962388     1.496544    -3.082926
 C    -1.244432     2.166064    -3.250684
 H    -0.363486     2.751303    -2.948572
 H    -0.883581     1.256514    -3.754954
 H    -1.824893     2.759002    -3.973756
