  94
scf done:    -2826.027982
 C    -0.233150    -3.833110     0.228925
 H     0.061364    -4.168573    -0.768842
 H     0.494987    -4.029185     1.017134
 C    -1.577076    -3.613415     0.533000
 H    -2.349482    -3.784180    -0.218695
 H    -1.927077    -3.622909     1.567082
 H    -0.336814    -1.700121     1.808611
Ir    -0.642877    -1.612843     0.218429
 C     2.263822    -0.096551     1.403214
 O     2.477708    -2.659658     0.416496
 O     2.361960    -0.858425    -1.262452
 C    -2.616216    -0.691895     0.883234
 O    -0.676578     1.167989     2.042205
 O    -1.494790     1.825629    -0.118126
 P    -1.466797     0.429844     0.786992
 P     1.619199    -1.282430     0.139970
 C    -0.995454    -1.638734    -1.718313
 O    -1.116988    -1.786977    -2.843566
 H     1.365296     0.353268     1.847143
 H     2.724423    -0.732737     2.174909
 C     3.215503     0.959532     0.926416
 C     4.597427     0.749186     0.905565
 H     5.012241    -0.198744     1.254811
 C     2.708733     2.188406     0.487574
 H     1.627614     2.354403     0.511286
 C     5.445371     1.753520     0.441869
 H     6.525333     1.587060     0.433700
 C     3.544037     3.198372     0.005595
 C     2.971682     4.483526    -0.514603
 H     1.953484     4.651746    -0.135587
 H     3.592166     5.347576    -0.234189
 H     2.920713     4.456992    -1.615876
 C     4.924980     2.963123    -0.011007
 H     5.598710     3.741854    -0.379085
 C     3.840248    -2.686980     0.603013
 C     4.329017    -2.892322     1.893069
 H     3.622015    -3.024642     2.714702
 C     4.711629    -2.547388    -0.477168
 H     4.300298    -2.398202    -1.474671
 C     5.705774    -2.930324     2.107331
 H     6.089910    -3.087389     3.117794
 C     6.085080    -2.585880    -0.250144
 H     6.770852    -2.470295    -1.092693
 C     6.587014    -2.769378     1.038702
 H     7.665393    -2.795992     1.208917
 C     2.235614     0.282744    -2.026245
 C     1.115496     0.995959    -2.148146
 H     0.221776     0.710212    -1.596081
 C     3.526234     0.608074    -2.700857
 H     4.301465     0.732979    -1.922109
 C     1.042070     2.232439    -2.984069
 H     0.739325     3.085863    -2.347932
 C     3.435653     1.832288    -3.554299
 H     4.343041     2.129598    -4.088958
 C     2.321600     2.557418    -3.683940
 H     2.327579     3.442901    -4.327672
 H     0.214949     2.144224    -3.713297
 H     3.852490    -0.263485    -3.299952
 C    -4.001653    -1.038916     0.758575
 C    -4.967259    -0.446227     1.602064
 H    -4.633589     0.221831     2.399392
 C    -4.470980    -1.922345    -0.235218
 H    -3.744440    -2.377072    -0.913502
 C    -6.318905    -0.716264     1.432765
 H    -7.048269    -0.239118     2.093170
 C    -5.826453    -2.214634    -0.400753
 C    -6.271163    -3.189164    -1.454366
 H    -5.552882    -3.241574    -2.285898
 H    -6.364861    -4.206301    -1.037607
 H    -7.253507    -2.916350    -1.867688
 C    -6.756226    -1.596918     0.442861
 H    -7.822543    -1.807709     0.325990
 C    -1.095678     2.325366     2.643598
 C    -2.431242     2.728624     2.646318
 H    -3.189648     2.124360     2.143013
 C    -0.120863     3.091961     3.281741
 H     0.917886     2.756509     3.257061
 C    -2.785598     3.908138     3.297168
 H    -3.831803     4.222848     3.297098
 C    -0.489688     4.266823     3.932022
 H     0.275439     4.865487     4.432127
 C    -1.821324     4.681317     3.942245
 H    -2.106826     5.604742     4.450366
 C    -2.190303     2.048550    -1.272162
 C    -2.054151     3.326972    -1.819740
 H    -1.442583     4.058772    -1.288568
 C    -2.985817     1.090272    -1.902086
 H    -3.130257     0.111614    -1.444864
 C    -2.695670     3.638133    -3.013642
 H    -2.585261     4.639132    -3.437743
 C    -3.620453     1.417324    -3.100132
 H    -4.242999     0.663844    -3.588100
 C    -3.476905     2.682130    -3.665222
 H    -3.979467     2.927448    -4.603167
