 100
scf done:    -3103.115027
 C    -1.320715    -3.526224     2.040674
 H    -1.646937    -3.596235     3.083201
 H    -2.097720    -3.805945     1.322425
 C     0.052443    -3.795875     1.716733
 H     0.745323    -4.064069     2.520394
 H     0.299992    -4.257994     0.757092
 H    -0.731625    -2.102370     0.000547
Ir    -0.327744    -1.675437     1.521003
 C    -3.724667    -0.658569     1.341169
 O    -2.073209     1.140815     2.306953
 O    -1.956312     0.804159    -0.145452
 C     2.449639     0.546773     1.387521
 O     2.643087    -1.605890    -0.109890
 O     0.877607     0.126461    -0.883136
 P     1.409029    -0.650656     0.467370
 P    -1.969242    -0.122928     1.231073
 C     0.235123    -1.361632     3.336289
 O     0.598935    -1.243753     4.418361
 H    -3.752223    -1.682532     0.941890
 H    -3.897890    -0.738896     2.427602
 C    -4.720439     0.227386     0.653171
 C    -4.923172     1.552021     1.060271
 H    -4.376519     1.936827     1.923069
 C    -5.419797    -0.241356    -0.464671
 H    -5.262877    -1.267080    -0.806253
 C    -5.787422     2.389829     0.361555
 H    -5.950100     3.425305     0.666288
 C    -6.290347     0.581868    -1.171613
 H    -6.828314     0.224761    -2.051063
 C    -6.456385     1.894363    -0.751271
 F    -7.277278     2.697844    -1.428885
 C    -1.008787     1.976021     2.536076
 C    -0.648898     2.942432     1.595023
 H    -1.213867     3.009535     0.665928
 C    -0.316653     1.887237     3.741659
 H    -0.620400     1.141989     4.477350
 C     0.415072     3.798665     1.862380
 H     0.682720     4.557843     1.121730
 C     0.750791     2.747365     3.990290
 H     1.292435     2.661956     4.936055
 C     1.144782     3.712139     3.055881
 C     2.328152     4.600693     3.304020
 H     3.233600     4.188444     2.827032
 H     2.538858     4.702287     4.377955
 H     2.171181     5.607135     2.888805
 C    -2.423166     0.512349    -1.392379
 C    -2.931876     1.579240    -2.135802
 H    -2.952289     2.573095    -1.685117
 C    -2.409486    -0.768818    -1.938539
 H    -1.992815    -1.599082    -1.367035
 C    -3.440166     1.355707    -3.408008
 H    -3.850126     2.198340    -3.971887
 C    -2.928381    -0.974473    -3.216445
 H    -2.918834    -1.985923    -3.632566
 C    -3.454447     0.073807    -3.975274
 C    -3.998428    -0.150977    -5.356392
 H    -4.974381     0.340977    -5.489663
 H    -4.127267    -1.221745    -5.568953
 H    -3.322030     0.260075    -6.123993
 H     1.735122     1.292744     1.767259
 H     2.783167    -0.037011     2.261528
 C     3.601469     1.202131     0.684702
 C     4.779920     0.502095     0.400886
 H     4.874208    -0.539586     0.712287
 C     3.503214     2.536185     0.273404
 H     2.588120     3.091337     0.484951
 C     5.817874     1.103953    -0.305519
 H     6.735483     0.563435    -0.544598
 C     4.530239     3.152254    -0.432431
 H     4.448706     4.184988    -0.774917
 C     5.672911     2.420104    -0.724733
 F     6.649476     2.994273    -1.431599
 C     2.414335    -2.813168    -0.718231
 C     3.158552    -3.910683    -0.289411
 H     3.875208    -3.777232     0.522973
 C     1.481177    -2.956775    -1.743948
 H     0.898195    -2.095988    -2.075363
 C     2.962129    -5.151626    -0.884429
 H     3.545341    -6.008532    -0.535795
 C     1.291328    -4.210249    -2.322113
 H     0.550268    -4.317620    -3.118999
 C     2.022251    -5.328510    -1.908683
 C     1.829125    -6.670339    -2.553804
 H     2.639834    -6.888715    -3.268845
 H     0.880526    -6.718026    -3.107111
 H     1.828591    -7.479294    -1.807788
 C     1.557794     0.970265    -1.726309
 C     2.739176     0.590454    -2.364248
 H     3.163398    -0.396605    -2.183038
 C     0.999977     2.222060    -1.966931
 H     0.058233     2.476686    -1.479307
 C     3.385588     1.501215    -3.190499
 H     4.328278     1.209995    -3.661940
 C     1.659191     3.118416    -2.805680
 H     1.223317     4.106194    -2.979905
 C     2.871741     2.784963    -3.416111
 C     3.626307     3.765262    -4.265806
 H     4.619497     3.970965    -3.833683
 H     3.090876     4.721010    -4.354558
 H     3.792175     3.375719    -5.282752
