 104
scf done:    -2507.327645
 C    -0.261016    -2.943212    -2.310096
 H     0.008963    -2.723497    -3.348470
 H     0.324011    -3.757058    -1.871583
 C    -1.624456    -2.773339    -1.894557
 H    -2.362664    -2.427762    -2.626376
 H    -2.038899    -3.462506    -1.152521
 H    -0.196795    -2.285210     0.211651
Ir    -0.414114    -1.210257    -1.027525
 C     2.791760     0.130845    -1.990416
 C     2.550992    -0.096359     0.865604
 C     2.767123    -2.455859    -0.775823
 C    -1.501846     0.376964     2.140920
 C    -2.980526     1.106405    -0.218503
 C    -3.204884    -1.533183     0.939715
 P    -1.950122    -0.264128     0.466483
 P     1.878442    -0.836429    -0.677548
 C    -0.733264     0.013365    -2.441429
 O    -0.972227     0.748796    -3.300066
 H     3.827588    -0.241446    -2.010692
 H     2.320889    -0.155780    -2.942417
 C     2.803304     1.621771    -1.823490
 C     1.797563     2.432137    -2.366242
 H     0.980364     1.980609    -2.929311
 C     3.845027     2.248764    -1.125028
 H     4.648052     1.641893    -0.699123
 C     1.829322     3.817991    -2.224216
 H     1.050823     4.451564    -2.653033
 C     3.892365     3.631235    -0.971575
 H     4.703496     4.120878    -0.429994
 C     2.880279     4.402601    -1.529559
 F     2.914841     5.726837    -1.387794
 H     3.653046    -0.103920     0.821537
 H     2.245260     0.960073     0.859453
 C     2.048496    -0.764917     2.133110
 H     0.953515    -0.860759     2.065495
 H     2.431000    -1.799129     2.201284
 C     2.420997     0.010788     3.388414
 H     2.112360     1.062875     3.260693
 H     3.520374     0.029830     3.501890
 C     1.787039    -0.539915     4.656971
 H     0.689979    -0.558326     4.526444
 H     2.088536    -1.593766     4.793714
 C     2.135673     0.264183     5.898586
 H     1.658137    -0.147244     6.800942
 H     1.809587     1.311488     5.792966
 H     3.223443     0.276730     6.074142
 H     2.171404    -3.153689    -0.165879
 H     2.634489    -2.792909    -1.817774
 C     4.232553    -2.505055    -0.371819
 H     4.812280    -1.734036    -0.910446
 H     4.334094    -2.262219     0.699693
 C     4.866818    -3.865704    -0.631601
 H     4.781387    -4.108895    -1.706308
 H     4.285734    -4.643696    -0.104037
 C     6.326518    -3.949364    -0.207674
 H     6.901299    -3.166346    -0.733797
 H     6.405301    -3.704774     0.866591
 C     6.954498    -5.308486    -0.470553
 H     8.008043    -5.338211    -0.153955
 H     6.921838    -5.562916    -1.542183
 H     6.421501    -6.106045     0.071675
 H    -2.444158     0.557212     2.682884
 H    -1.014814    -0.471460     2.653127
 C    -0.642178     1.608729     2.248094
 C     0.033587     2.175561     1.163442
 H    -0.036510     1.709089     0.177506
 C    -0.500802     2.217975     3.503356
 H    -1.024144     1.796161     4.366020
 C     0.833578     3.306645     1.321060
 H     1.365277     3.745021     0.476301
 C     0.297092     3.343353     3.681291
 H     0.412019     3.816903     4.658009
 C     0.960220     3.873899     2.580133
 F     1.727179     4.952067     2.739939
 H    -3.562370     1.579001     0.590796
 H    -2.272670     1.870199    -0.578511
 C    -3.887412     0.655855    -1.358115
 H    -3.353491    -0.075672    -1.988555
 H    -4.757946     0.115162    -0.947894
 C    -4.367973     1.805744    -2.231059
 H    -3.487669     2.318658    -2.658133
 H    -4.884929     2.556708    -1.605838
 C    -5.286342     1.362455    -3.360676
 H    -4.758657     0.611421    -3.974685
 H    -6.161165     0.839605    -2.934394
 C    -5.753830     2.508199    -4.243339
 H    -6.412375     2.156712    -5.052037
 H    -4.899857     3.024513    -4.710485
 H    -6.312788     3.259039    -3.661661
 H    -3.577440    -1.921747    -0.021523
 H    -2.631993    -2.364793     1.383121
 C    -4.366731    -1.123466     1.833265
 H    -4.002604    -0.853216     2.839017
 H    -4.852947    -0.215976     1.434078
 C    -5.412189    -2.223178     1.970033
 H    -4.929467    -3.139399     2.355897
 H    -5.792934    -2.488109     0.966857
 C    -6.579913    -1.846929     2.871258
 H    -6.194297    -1.584363     3.872515
 H    -7.052826    -0.926777     2.484159
 C    -7.623682    -2.944848     2.996729
 H    -8.454003    -2.643901     3.653279
 H    -7.186211    -3.865914     3.414401
 H    -8.052423    -3.202103     2.014808
