  84
scf done:    -4483.064955
 C    -0.823824    -3.270745    -1.889582
 H    -1.417387    -4.028574    -1.366136
 H    -1.299780    -2.915133    -2.809549
 C     0.610363    -3.370522    -1.845074
 H     1.054267    -4.198620    -1.281332
 H     1.195317    -3.080024    -2.722628
 H     0.081723    -0.879339    -2.096689
Ir    -0.036794    -1.685241    -0.666463
 C    -2.794097    -0.006173    -1.967164
 C    -3.250699    -0.992087     0.679056
 C    -1.657525     1.342611     0.376317
 C     2.153116    -0.267185     1.778320
 C     3.412388    -0.830562    -0.735706
 C     1.693325     1.410614    -0.599480
 P     1.778249    -0.340730    -0.062847
 P    -1.896003    -0.318452    -0.356663
 C    -0.095900    -2.657547     0.978012
 O    -0.089604    -3.224782     1.978765
 H    -2.219798     0.760141    -2.508732
 H    -2.646131    -0.943785    -2.520930
 C    -4.250407     0.317570    -1.842277
 C    -5.187112    -0.725366    -1.816062
 H    -4.845594    -1.754838    -1.948354
 C    -4.718336     1.625461    -1.668245
 H    -4.019376     2.463047    -1.689644
 C    -6.539133    -0.483969    -1.601149
 H    -7.267854    -1.295602    -1.568868
 C    -6.069863     1.887465    -1.455059
 H    -6.439847     2.905224    -1.318992
 C    -6.964165     0.825894    -1.415269
 F    -8.256090     1.069044    -1.201662
 C    -3.421871    -2.378206     0.741443
 H    -2.686322    -3.027344     0.261169
 C    -4.203872    -0.165381     1.289154
 H    -4.100388     0.920287     1.241337
 C    -4.521669    -2.935519     1.388128
 H    -4.655640    -4.017276     1.434989
 C    -5.303833    -0.708075     1.942602
 H    -6.050162    -0.064421     2.410497
 C    -5.459632    -2.093946     1.982717
Cl    -6.835853    -2.774510     2.779633
 C    -1.632438     2.522351    -0.372077
 H    -1.786305     2.499571    -1.451388
 C    -1.393692     1.418826     1.752192
 H    -1.393904     0.505766     2.354559
 C    -1.382211     3.752504     0.231038
 H    -1.345272     4.666912    -0.363108
 C    -1.138658     2.638522     2.368377
 H    -0.937348     2.694540     3.439581
 C    -1.136717     3.803059     1.599665
Cl    -0.761564     5.320354     2.345270
 H     1.494097     0.503319     2.206213
 H     1.786433    -1.229594     2.161251
 C     3.593172    -0.085045     2.152684
 C     4.436611    -1.205313     2.186754
 H     4.017209    -2.197064     2.002736
 C     4.160969     1.168107     2.407519
 H     3.536994     2.063021     2.412065
 C     5.799895    -1.084421     2.426769
 H     6.458690    -1.954265     2.437483
 C     5.524309     1.309531     2.657946
 H     5.969839     2.285702     2.857174
 C     6.331051     0.180079     2.651519
 F     7.637119     0.309338     2.876227
 C     3.672457    -2.186791    -0.947791
 H     2.857450    -2.903884    -0.830096
 C     4.450223     0.095026    -0.902970
 H     4.268638     1.159177    -0.738811
 C     4.946993    -2.622739    -1.299666
 H     5.153361    -3.681730    -1.462538
 C     5.726933    -0.326015    -1.256339
 H     6.540201     0.391183    -1.376683
 C     5.969518    -1.687147    -1.443956
Cl     7.562022    -2.218964    -1.863532
 C     1.748311     2.503379     0.266711
 H     1.821952     2.357256     1.342987
 C     1.548942     1.655080    -1.973651
 H     1.491530     0.811573    -2.666015
 C     1.669397     3.809530    -0.211937
 H     1.684759     4.655897     0.476501
 C     1.463412     2.951168    -2.466791
 H     1.345106     3.137103    -3.535550
 C     1.519736     4.025367    -1.577202
Cl     1.348794     5.642505    -2.172562
