  68
scf done:    -2035.946107
 C    -0.010573    -1.961524    -1.423206
 H    -0.060057    -1.923731    -2.516663
 H     0.844198    -2.534761    -1.050550
 C    -1.239914    -1.961666    -0.676814
 H    -2.192342    -1.914345    -1.212532
 H    -1.297243    -2.536343     0.252838
 H     0.479022    -0.826652     0.809447
Ir    -0.254113    -0.058504    -0.441256
 C     2.914681     1.020882     0.814161
 C     2.865479     0.430921    -2.016195
 C     1.675422     2.874604    -1.028483
 C    -3.219434     1.406816     0.894513
 C    -1.549963     0.064773     2.823456
 C    -0.836089     2.681474     1.820141
 P    -1.431604     1.021597     1.249329
 P     1.779573     1.061451    -0.666701
 C    -1.090293     0.820142    -1.910235
 O    -1.575158     1.389975    -2.789356
 H     3.526969     1.935139     0.810887
 H     2.257463     1.060492     1.695580
 C     3.809122    -0.183422     0.858192
 C     3.316964    -1.449868     1.202395
 H     2.261117    -1.559902     1.457880
 C     5.160421    -0.073322     0.509016
 H     5.568024     0.904968     0.239336
 C     4.142847    -2.570090     1.195618
 H     3.764361    -3.558900     1.460841
 C     6.001703    -1.183233     0.498684
 H     7.056495    -1.101160     0.230530
 C     5.478469    -2.422933     0.841740
 F     6.274720    -3.491668     0.835106
 H     3.064939    -0.621573    -1.761127
 C     2.217902     0.532453    -3.387074
 H     2.021035     1.576278    -3.678543
 H     1.258021    -0.004404    -3.401515
 H     3.836727     0.952388    -1.986270
 H     2.866243     0.091111    -4.159025
 H     1.227970     3.322820    -0.126937
 C     2.952916     3.596382    -1.424490
 H     3.354040     3.222818    -2.378217
 H     3.745303     3.489025    -0.667181
 H     0.908762     2.971022    -1.814786
 H     2.768567     4.674890    -1.547736
 H    -3.669038     1.838600     1.802967
 H    -3.200575     2.196600     0.126971
 C    -4.021135     0.233815     0.416414
 C    -4.237316     0.019225    -0.949827
 H    -3.839791     0.729330    -1.677413
 C    -4.556700    -0.690362     1.322100
 H    -4.423220    -0.535537     2.395549
 C    -4.948330    -1.087430    -1.404979
 H    -5.117752    -1.258745    -2.469434
 C    -5.266448    -1.805661     0.885240
 H    -5.685274    -2.529572     1.586446
 C    -5.449014    -1.993082    -0.478781
 F    -6.128723    -3.056971    -0.905573
 H    -1.939001    -0.923112     2.530851
 C    -0.230153    -0.083018     3.561763
 H     0.159180     0.886293     3.910706
 H     0.529921    -0.538886     2.910119
 H    -2.309851     0.536654     3.469204
 H    -0.346971    -0.727329     4.446187
 H    -0.875886     3.321313     0.922736
 C    -1.542216     3.341801     2.993771
 H    -1.488739     2.726492     3.904607
 H    -2.604764     3.533558     2.782538
 H     0.236406     2.543177     2.035480
 H    -1.079878     4.312934     3.229872
