 104
scf done:    -2507.336063
 C     0.682855    -0.360342    -3.517506
 H     0.935963     0.593129    -3.994225
 H     1.412524    -1.150692    -3.722189
 C    -0.705365    -0.720452    -3.385085
 H    -1.465802    -0.028471    -3.763772
 H    -0.991903    -1.771627    -3.486048
 H     0.469464    -1.823914    -1.406920
Ir     0.102926    -0.222611    -1.448349
 C     3.291584     1.387727    -0.952558
 C     2.470816    -0.129254     1.348142
 C     3.290256    -1.469611    -1.053235
 C    -1.311694    -0.031478     1.908666
 C    -3.200570    -0.366898    -0.203322
 C    -1.516661    -2.589092     0.531833
 P    -1.448786    -0.774948     0.202104
 P     2.230635    -0.067356    -0.486430
 C    -0.568753     1.561784    -1.610445
 O    -1.109508     2.564264    -1.779173
 H     4.291785     1.236414    -0.517572
 H     3.388308     1.334846    -2.047777
 C     2.729278     2.708633    -0.532784
 C     1.926884     3.452324    -1.404768
 H     1.737359     3.071837    -2.410690
 C     2.962732     3.218805     0.751599
 H     3.600920     2.665664     1.445090
 C     1.354281     4.657882    -1.011500
 H     0.709297     5.229208    -1.680590
 C     2.400016     4.423664     1.163291
 H     2.570632     4.826298     2.163159
 C     1.598091     5.124658     0.271887
 F     1.026438     6.264266     0.671080
 H     1.862641     0.687197     1.771887
 H     3.521273     0.100657     1.591122
 C     2.047969    -1.470179     1.930001
 H     1.087689    -1.759815     1.472691
 H     2.765200    -2.252907     1.625591
 C     1.909378    -1.505737     3.453240
 H     1.225205    -0.687021     3.747157
 C     1.276980    -2.820975     3.893223
 H     0.287822    -2.965522     3.429943
 H     1.145962    -2.860740     4.985523
 H     1.908247    -3.677083     3.601883
 C     3.242202    -1.270735     4.154458
 H     3.127490    -1.298478     5.248957
 H     3.678457    -0.294695     3.893402
 H     3.972040    -2.049763     3.875822
 H     3.228522    -1.456717    -2.153750
 H     2.734146    -2.368159    -0.746448
 C     4.737156    -1.517245    -0.585812
 H     5.299097    -0.683786    -1.039046
 H     4.797542    -1.364266     0.507251
 C     5.460524    -2.826825    -0.921102
 H     5.322473    -3.015204    -2.002383
 C     6.955132    -2.691318    -0.653929
 H     7.396944    -1.868339    -1.237105
 H     7.495809    -3.614982    -0.911994
 H     7.144463    -2.483151     0.412659
 C     4.881928    -4.013881    -0.158203
 H     5.403219    -4.946966    -0.421582
 H     3.812739    -4.166043    -0.368716
 H     4.992724    -3.867971     0.930003
 H    -1.919825    -0.634977     2.599057
 H    -0.262157    -0.140231     2.211589
 C    -1.747552     1.401456     1.974076
 C    -0.914292     2.448031     1.556428
 H     0.089213     2.230693     1.182353
 C    -3.030754     1.722911     2.436643
 H    -3.693523     0.923329     2.778364
 C    -1.348404     3.770805     1.595146
 H    -0.709692     4.594555     1.278045
 C    -3.481435     3.038646     2.478873
 H    -4.479101     3.292883     2.841090
 C    -2.629064     4.049022     2.052644
 F    -3.047896     5.313782     2.091932
 H    -3.213760     0.718184    -0.400394
 H    -3.826461    -0.529735     0.689171
 C    -3.729749    -1.131213    -1.407142
 H    -2.961324    -1.114934    -2.196289
 H    -3.877155    -2.194599    -1.142142
 C    -5.039671    -0.583779    -1.977537
 H    -4.855610     0.469146    -2.262944
 C    -5.425347    -1.349837    -3.237301
 H    -4.621355    -1.315435    -3.988859
 H    -6.336815    -0.937405    -3.697180
 H    -5.620036    -2.410871    -3.006603
 C    -6.171555    -0.601409    -0.956326
 H    -7.108780    -0.224577    -1.394482
 H    -5.945432     0.022099    -0.078097
 H    -6.360846    -1.628867    -0.600424
 H    -0.496252    -2.896460     0.811666
 H    -1.679861    -3.022630    -0.466915
 C    -2.534176    -3.099153     1.538962
 H    -2.309008    -2.685041     2.536410
 H    -3.545111    -2.735290     1.280778
 C    -2.586023    -4.626327     1.658388
 H    -1.556635    -4.976430     1.864903
 C    -3.465136    -5.035833     2.834392
 H    -3.105463    -4.598812     3.779157
 H    -3.489305    -6.129622     2.957114
 H    -4.503468    -4.695788     2.683649
 C    -3.060246    -5.289804     0.370037
 H    -3.093928    -6.384837     0.477606
 H    -2.403259    -5.064005    -0.482903
 H    -4.076866    -4.950006     0.108733
