  88
scf done:    -4783.854345
 C    -0.039502    -4.172385    -0.486605
 H    -0.466934    -4.792204     0.307676
 H    -0.554999    -4.272304    -1.446541
 C     1.367932    -3.899852    -0.483424
 H     1.989776    -4.315765     0.315138
 H     1.895596    -3.787302    -1.434206
 H     0.257472    -1.833138    -1.541912
Ir     0.289654    -2.105412     0.073807
 C    -2.889535    -1.803587    -1.367344
 O    -2.810302    -1.241260     1.210525
 O    -1.694083     0.494819    -0.356181
 C     1.982556     0.558331     1.699813
 O     3.318181    -0.610734    -0.243463
 O     1.299762     0.815260    -0.995656
 P     1.713898    -0.334968     0.116401
 P    -1.757439    -1.141947    -0.081966
 C     0.448314    -2.505327     1.957558
 O     0.619982    -2.747673     3.064282
 H    -2.338664    -1.655071    -2.309047
 H    -2.861234    -2.887901    -1.168540
 C    -4.298294    -1.293243    -1.464651
 C    -5.249139    -1.597445    -0.482364
 H    -4.965184    -2.222521     0.365291
 C    -4.692454    -0.498522    -2.547383
 H    -3.969694    -0.257200    -3.330037
 C    -6.543449    -1.092369    -0.556529
 H    -7.289836    -1.318178     0.207190
 C    -5.981288     0.017157    -2.635647
 H    -6.286776     0.660608    -3.462252
 C    -6.891052    -0.280917    -1.629529
 F    -8.124082     0.217864    -1.696049
 C    -2.374282    -1.080999     2.495232
 C    -2.682368    -2.070798     3.427059
 H    -3.248198    -2.945820     3.102988
 C    -1.644862     0.046202     2.880273
 H    -1.425800     0.820824     2.143364
 C    -2.252103    -1.944134     4.743092
 H    -2.478204    -2.716568     5.479481
 C    -1.204462     0.170377     4.194489
 H    -0.625915     1.041147     4.507496
 C    -1.505781    -0.827668     5.119855
Cl    -0.949343    -0.678518     6.751540
 C    -2.700101     1.326015    -0.773851
 C    -3.844806     1.538849    -0.004201
 H    -3.973548     1.005024     0.937434
 C    -2.520786     2.002689    -1.979529
 H    -1.608119     1.827153    -2.552273
 C    -4.836145     2.393754    -0.471660
 H    -5.751299     2.546720     0.101983
 C    -3.507326     2.868284    -2.442687
 H    -3.387058     3.395143    -3.390586
 C    -4.668026     3.046812    -1.692768
Cl    -5.928998     4.069152    -2.295562
 H     0.983831     0.937313     1.964356
 H     2.188889    -0.261991     2.408034
 C     3.018769     1.640253     1.801468
 C     4.386444     1.345303     1.738046
 H     4.707930     0.310659     1.613165
 C     2.633921     2.974808     1.972442
 H     1.572605     3.226377     2.031959
 C     5.340825     2.355193     1.805476
 H     6.408762     2.136519     1.750590
 C     3.574871     3.997230     2.038431
 H     3.280111     5.042760     2.141046
 C     4.921788     3.672740     1.945195
 F     5.831989     4.643663     1.994758
 C     3.712297    -1.463642    -1.237551
 C     4.685670    -2.413948    -0.933541
 H     5.081354    -2.461066     0.082384
 C     3.179552    -1.386444    -2.525109
 H     2.415723    -0.641565    -2.752485
 C     5.128151    -3.295304    -1.913819
 H     5.886265    -4.046350    -1.686989
 C     3.614375    -2.273678    -3.505506
 H     3.200782    -2.230177    -4.514136
 C     4.584902    -3.225358    -3.196632
Cl     5.124092    -4.329436    -4.417781
 C     1.760648     2.105138    -1.053751
 C     3.096659     2.391670    -1.336610
 H     3.805638     1.578159    -1.491655
 C     0.840292     3.133121    -0.857418
 H    -0.200229     2.878242    -0.651032
 C     3.521052     3.715024    -1.373029
 H     4.567930     3.956245    -1.562214
 C     1.261451     4.458671    -0.906006
 H     0.555100     5.274029    -0.742176
 C     2.604361     4.741536    -1.146488
Cl     3.148942     6.385884    -1.134452
