  94
scf done:    -4664.049489
 C    -1.937966     3.347715    -1.569490
 H    -2.703617     3.268843    -2.346829
 H    -2.293400     3.817796    -0.647938
 C    -0.564117     3.501254    -1.940009
 H    -0.297613     3.545943    -3.000249
 H     0.103716     4.076425    -1.293701
 H    -0.537234     2.169394     0.237416
Ir    -0.887233     1.488092    -1.202676
 C    -2.822197     0.870408     1.724359
 O    -3.934278     0.452426    -0.742789
 O    -2.380982    -1.273081     0.337417
 C     1.682097    -0.837386    -2.046735
 O     2.479675     1.494839    -1.146538
 O     1.356937    -0.056817     0.605713
 P     1.146869     0.512681    -0.931953
 P    -2.446356     0.361919     0.000028
 C    -1.270332     0.769016    -2.951998
 O    -1.489644     0.342567    -3.993612
 H    -2.892537     1.968016     1.698530
 H    -3.813624     0.465505     1.979358
 C    -1.785079     0.395457     2.701200
 C    -1.935343    -0.845415     3.331171
 H    -2.821655    -1.449653     3.124469
 C    -0.644127     1.155559     2.975309
 H    -0.524584     2.125934     2.486317
 C    -0.963999    -1.302459     4.217603
 H    -1.096726    -2.263980     4.720326
 C     0.349527     0.703388     3.849452
 C     1.595407     1.505280     4.085888
 H     1.446115     2.567363     3.844314
 H     1.928563     1.436810     5.131792
 H     2.421871     1.130962     3.458107
 C     0.171402    -0.536404     4.472609
 H     0.933647    -0.904517     5.164653
 C    -5.107624    -0.004862    -0.204999
 C    -6.039113     0.926202     0.256474
 H    -5.797627     1.989174     0.196730
 C    -5.395859    -1.369890    -0.154856
 H    -4.667916    -2.090807    -0.527319
 C    -7.256458     0.498047     0.776169
 H    -7.992315     1.217615     1.138307
 C    -6.611692    -1.801482     0.367327
 H    -6.849361    -2.865440     0.411670
 C    -7.535806    -0.867106     0.833228
Cl    -9.047354    -1.406517     1.483806
 C    -1.689309    -2.203619    -0.367507
 C    -0.869603    -3.074800     0.351093
 H    -0.813712    -2.956307     1.434042
 C    -1.808461    -2.333243    -1.752336
 H    -2.471328    -1.668030    -2.307955
 C    -0.151758    -4.063185    -0.309878
 H     0.494612    -4.745417     0.244659
 C    -1.080097    -3.316400    -2.420761
 H    -1.152038    -3.415851    -3.504854
 C    -0.249744    -4.171963    -1.698363
Cl     0.691858    -5.367128    -2.525664
 H     0.896098    -1.599913    -1.937685
 H     1.554138    -0.397845    -3.050102
 C     3.048276    -1.432622    -1.871489
 C     4.195713    -0.758822    -2.301643
 H     4.102577     0.215552    -2.784727
 C     3.187558    -2.683192    -1.262648
 H     2.290589    -3.215428    -0.941096
 C     5.450999    -1.324610    -2.094143
 H     6.346053    -0.795100    -2.430232
 C     4.438318    -3.264899    -1.046337
 C     4.557419    -4.596712    -0.365781
 H     3.610207    -5.152828    -0.412209
 H     5.339767    -5.215682    -0.829741
 H     4.828709    -4.471324     0.695350
 C     5.573945    -2.562115    -1.466678
 H     6.564924    -2.996617    -1.308624
 C     2.567331     2.765977    -0.656785
 C     3.073975     3.754687    -1.499614
 H     3.354297     3.487107    -2.519704
 C     2.196757     3.079230     0.651785
 H     1.808756     2.299295     1.306732
 C     3.201889     5.061369    -1.041643
 H     3.592363     5.844220    -1.693530
 C     2.315969     4.387936     1.109489
 H     2.024529     4.646732     2.128803
 C     2.814909     5.375007     0.261541
Cl     2.962752     7.004004     0.832963
 C     2.424327    -0.701538     1.173075
 C     3.745208    -0.280149     1.011862
 H     3.976687     0.579045     0.385596
 C     2.130656    -1.795790     1.985318
 H     1.087477    -2.070077     2.131644
 C     4.773662    -1.001977     1.608744
 H     5.811922    -0.704162     1.458461
 C     3.156400    -2.511300     2.592042
 H     2.936810    -3.376540     3.219534
 C     4.477224    -2.119492     2.385097
Cl     5.767144    -3.047323     3.083028
