  56
scf done:    -1878.826658
 C    -1.143735    -3.429418    -0.530776
 H    -1.571484    -3.897312     0.362318
 H    -1.853671    -3.355484    -1.360713
 C     0.250571    -3.644478    -0.825178
 H     0.843343    -4.267381    -0.146961
 H     0.563512    -3.726065    -1.870776
 H    -0.354414    -1.313223    -1.763613
Ir    -0.044654    -1.615349    -0.169785
 C    -3.311660    -0.450566    -0.343196
 C    -1.812308     0.742300     1.829718
 C    -1.364800     1.624101    -0.830592
 C     2.449271     0.737661     0.747092
 C     3.431953    -1.611725    -0.617778
 C     2.120942     0.413275    -2.115206
 P     1.967566    -0.515466    -0.546945
 P    -1.594736     0.082315     0.134143
 C     0.284056    -1.967445     1.676091
 O     0.483199    -2.134817     2.798574
 H    -3.213632    -0.807548    -1.379997
 H    -3.508782    -1.342283     0.271480
 C    -4.394401     0.572515    -0.205842
 C    -5.096825     0.724249     0.997695
 H    -4.878536     0.055409     1.834265
 C    -4.715771     1.431702    -1.265691
 H    -4.195595     1.322637    -2.220945
 C    -6.076335     1.702055     1.148996
 H    -6.629087     1.819797     2.082795
 C    -5.692042     2.415510    -1.133322
 H    -5.949006     3.082777    -1.958017
 C    -6.359394     2.541251     0.078646
 F    -7.295317     3.479682     0.214322
 H    -2.066268    -0.084396     2.509074
 H    -0.852389     1.164770     2.161510
 H    -2.591135     1.517713     1.883916
 H    -2.183677     2.342210    -0.674037
 H    -0.416004     2.088338    -0.523612
 H    -1.292626     1.369433    -1.897687
 H     1.615906     1.457206     0.776886
 H     2.418928     0.186887     1.700637
 C     3.760715     1.430898     0.554753
 C     4.944181     0.896500     1.082186
 H     4.900967    -0.018191     1.679017
 C     3.849003     2.614944    -0.189880
 H     2.939102     3.060973    -0.600148
 C     6.175330     1.510663     0.869949
 H     7.098748     1.100482     1.282706
 C     5.071124     3.243508    -0.412462
 H     5.143906     4.168271    -0.987630
 C     6.223674     2.678744     0.119312
 F     7.397256     3.273538    -0.088018
 H     3.517043    -2.156514     0.333642
 H     3.253780    -2.352561    -1.410385
 H     4.365098    -1.064566    -0.820534
 H     1.944428    -0.293100    -2.938575
 H     1.340926     1.185858    -2.162900
 H     3.112178     0.877064    -2.228668
