 100
scf done:    -2462.599329
 C    -0.016823    -1.346403    -3.139103
 H    -0.592779    -2.252863    -3.352403
 H    -0.322409    -0.477736    -3.730988
 C     1.333431    -1.452967    -2.716889
 H     1.787857    -2.442839    -2.605044
 H     2.045463    -0.667381    -2.982248
 H     0.347715     0.587146    -1.505842
Rh     0.097730    -0.901672    -1.031762
 C    -2.372003     1.352365    -1.984513
 C    -3.320908    -1.348454    -1.386684
 C    -2.679747     0.442739     0.930929
 C     0.879903    -0.262450     2.385626
 C     2.938133    -1.690327     0.835038
 C     2.426639     1.312403     0.626549
 P     1.611603    -0.365162     0.657016
 P    -2.070435    -0.058481    -0.781941
 C    -0.150703    -2.706280    -0.484322
 O    -0.257092    -3.813224    -0.188691
 H    -1.926157     0.897394    -2.886943
 C    -3.815852     1.721125    -2.299901
 H    -3.826144     2.507277    -3.072280
 H    -4.387351     0.874826    -2.700850
 H    -4.345852     2.112892    -1.421339
 C    -1.562785     2.603222    -1.662865
 H    -0.529503     2.360907    -1.376814
 H    -1.517729     3.249391    -2.553768
 H    -2.034393     3.186346    -0.860069
 H    -3.515199    -1.084628    -2.436516
 H    -2.743084    -2.280916    -1.413911
 C    -4.606744    -1.553577    -0.643850
 C    -5.801347    -0.981999    -1.098241
 H    -5.793664    -0.394289    -2.017717
 C    -4.638094    -2.349605     0.523820
 C    -3.417372    -3.083449     0.996463
 H    -2.543111    -2.425154     1.102144
 H    -3.122257    -3.869092     0.282421
 H    -3.594031    -3.564467     1.967959
 C    -6.998665    -1.139513    -0.405407
 H    -7.912966    -0.678244    -0.785851
 C    -5.845108    -2.485298     1.218433
 H    -5.862439    -3.091811     2.128069
 C    -7.018253    -1.882707     0.771509
 H    -7.946330    -2.006904     1.334186
 H    -3.282365    -0.409711     1.274256
 H    -1.769486     0.444149     1.540737
 C    -3.460430     1.704909     1.154959
 C    -4.854873     1.692050     1.028855
 H    -5.351878     0.756828     0.763118
 C    -2.819631     2.901080     1.539899
 C    -1.339920     2.953516     1.795393
 H    -0.760862     2.459792     1.001956
 H    -1.086724     2.451326     2.744770
 H    -0.988359     3.991731     1.871705
 C    -5.612187     2.842675     1.224211
 H    -6.698408     2.803746     1.113109
 C    -3.594692     4.051705     1.725604
 H    -3.096181     4.981660     2.013215
 C    -4.977292     4.035393     1.562401
 H    -5.556468     4.949548     1.712598
 H     0.241951     0.633939     2.291342
 C    -0.020197    -1.456727     2.668960
 H    -0.537595    -1.329625     3.633135
 H    -0.775913    -1.584141     1.884206
 H     0.557106    -2.393833     2.728771
 C     1.842832    -0.044993     3.546334
 H     2.585920     0.744833     3.369048
 H     1.279157     0.231756     4.451906
 H     2.386099    -0.971173     3.783383
 H     2.562513    -2.332786     1.647745
 H     2.832828    -2.277642    -0.085978
 C     4.384577    -1.362597     1.070900
 C     4.907329    -1.330807     2.370388
 H     4.243074    -1.523935     3.214385
 C     5.261169    -1.164472    -0.018313
 C     4.783048    -1.272793    -1.433830
 H     3.886113    -0.665422    -1.613058
 H     4.523122    -2.314892    -1.685366
 H     5.556957    -0.939312    -2.137609
 C     6.255575    -1.082124     2.613265
 H     6.632096    -1.067531     3.638674
 C     6.610718    -0.903272     0.242393
 H     7.282715    -0.737532    -0.603883
 C     7.113074    -0.856815     1.539841
 H     8.173111    -0.654033     1.710074
 H     1.553405     1.987259     0.632411
 H     2.932498     1.445247     1.589247
 C     3.357485     1.698619    -0.492277
 C     2.901129     1.740217    -1.815500
 H     1.862781     1.469802    -2.015963
 C     4.689185     2.077815    -0.218206
 C     5.220427     2.165450     1.182868
 H     5.131723     1.210951     1.720981
 H     4.680317     2.928409     1.767803
 H     6.283033     2.442123     1.179145
 C     3.743284     2.086132    -2.867749
 H     3.358722     2.098646    -3.890365
 C     5.525031     2.414500    -1.289690
 H     6.560435     2.694094    -1.076435
 C     5.071376     2.410760    -2.605474
 H     5.749965     2.677267    -3.419486
