  96
scf done:    -2010.543987
 C    -0.120749     0.407234    -3.702790
 H     0.100523     1.422276    -4.048024
 H     0.460102    -0.369448    -4.207488
 C    -1.417301     0.100427    -3.214142
 H    -2.185498     0.880381    -3.189560
 H    -1.813550    -0.911058    -3.343196
 H     0.214906    -1.342956    -1.828771
Rh    -0.050581     0.219343    -1.553604
 C     3.321584     0.589550    -2.430657
 C     2.664807     1.540904     0.257023
 C     2.835157    -1.303828    -0.205233
 C    -0.508480    -1.638982     1.491157
 C    -2.258288     0.691128     1.152170
 C    -2.743457    -1.645774    -0.452094
 P    -1.359746    -0.602072     0.183664
 P     2.196265     0.246519    -0.976975
 C    -0.278547     2.060505    -1.183072
 O    -0.363806     3.176080    -0.906787
 H     2.731854     1.333888    -2.992794
 C     4.688895     1.190607    -2.126197
 H     5.232101     1.374882    -3.067741
 H     4.614140     2.153683    -1.601220
 H     5.312522     0.520308    -1.516334
 C     3.426036    -0.663440    -3.293260
 H     2.437713    -1.119040    -3.454280
 H     3.854812    -0.419573    -4.278102
 H     4.080373    -1.417989    -2.827982
 H     2.424550     2.508949    -0.215500
 H     3.751339     1.531532     0.431096
 C     1.894053     1.393641     1.561368
 H     0.836512     1.202240     1.315952
 H     2.248299     0.497589     2.104359
 C     1.967995     2.596078     2.503046
 H     1.605915     3.475032     1.937327
 C     1.035199     2.387684     3.690720
 H    -0.003542     2.226378     3.361315
 H     1.041153     3.256080     4.367388
 H     1.338958     1.504941     4.278523
 C     3.391475     2.882640     2.966445
 H     3.422645     3.744447     3.650988
 H     4.062369     3.106607     2.123448
 H     3.808325     2.014376     3.505155
 H     2.655577    -2.103478    -0.941319
 H     2.117585    -1.502336     0.602969
 C     4.260358    -1.356427     0.325293
 H     4.965948    -1.403431    -0.520032
 H     4.506906    -0.429585     0.873250
 C     4.528960    -2.543381     1.257826
 H     4.182733    -3.458553     0.741400
 C     6.023466    -2.687206     1.520811
 H     6.586285    -2.826098     0.584621
 H     6.237704    -3.547432     2.173793
 H     6.420945    -1.786191     2.017665
 C     3.761058    -2.423462     2.570562
 H     3.950212    -3.290010     3.222630
 H     2.672977    -2.362214     2.416858
 H     4.071452    -1.518855     3.120731
 H     0.446831    -1.102380     1.614845
 C    -1.163612    -1.711348     2.865560
 H    -0.549476    -2.335161     3.536106
 H    -1.250960    -0.720821     3.334736
 H    -2.167242    -2.159326     2.830013
 C    -0.199211    -3.021468     0.926700
 H     0.226858    -2.955841    -0.085887
 H     0.524077    -3.549291     1.569087
 H    -1.105571    -3.644565     0.873777
 H    -1.479721     1.363531     1.552343
 H    -2.765665     0.241702     2.018830
 C    -3.242157     1.481869     0.296414
 H    -2.820144     1.618685    -0.713305
 H    -4.166543     0.892470     0.157598
 C    -3.608780     2.855030     0.861669
 H    -2.666416     3.426247     0.957142
 C    -4.508613     3.604280    -0.113152
 H    -4.028116     3.709079    -1.098222
 H    -4.747812     4.614252     0.254381
 H    -5.461725     3.068741    -0.260280
 C    -4.248920     2.760131     2.241822
 H    -4.511612     3.757138     2.628346
 H    -3.579079     2.287874     2.976634
 H    -5.176547     2.163662     2.202650
 H    -2.271579    -2.459186    -1.026901
 H    -3.211198    -0.999601    -1.211139
 C    -3.780780    -2.190602     0.518832
 H    -3.316908    -2.958593     1.159105
 H    -4.125559    -1.394905     1.203657
 C    -5.011332    -2.803856    -0.159308
 H    -4.648680    -3.538117    -0.903285
 C    -5.863516    -3.549794     0.861111
 H    -5.288864    -4.342289     1.365678
 H    -6.740825    -4.018377     0.388803
 H    -6.233965    -2.860657     1.638699
 C    -5.843128    -1.759022    -0.895575
 H    -6.711903    -2.219917    -1.390283
 H    -5.265295    -1.233984    -1.670695
 H    -6.225442    -1.000221    -0.191703
