  80
scf done:    -1925.159289
 C    -3.327348    -1.981976    -0.160607
 H    -3.925690    -1.944465     0.755234
 H    -3.823893    -1.543478    -1.031605
 C    -2.410017    -3.051056    -0.347245
 H    -2.316777    -3.819458     0.427118
 H    -2.205292    -3.415232    -1.358018
 H    -1.369518    -1.041201    -1.496258
Rh    -1.319560    -1.241560     0.083150
 O    -0.466352     1.502022    -1.407329
 C    -3.219433     1.472532    -0.833555
 C    -1.091199     2.232699     1.189259
 O     1.969250    -0.515238     0.526839
 C     1.614119    -3.197025     0.322836
 C     1.520557    -1.200616    -1.986538
 P     0.929620    -1.563554    -0.270766
 P    -1.513913     1.046584    -0.200719
 C    -1.284943    -1.641589     1.941863
 O    -1.269481    -1.983571     3.040382
 C    -0.191431     2.774381    -1.963194
 H    -0.195867     2.637792    -3.059200
 H    -0.984306     3.499063    -1.732881
 C     1.155473     3.325185    -1.535131
 H     1.293651     4.286424    -2.062761
 H     1.136510     3.570354    -0.458568
 C     2.324984     2.398032    -1.827453
 H     2.260144     2.052732    -2.874698
 H     2.219904     1.495563    -1.206398
 C     3.681165     3.039944    -1.587095
 H     3.839131     3.909868    -2.244962
 H     3.781776     3.392869    -0.548527
 H     4.499540     2.327811    -1.773249
 H    -3.390847     0.603214    -1.489719
 C    -4.216727     1.375086     0.317731
 H    -5.241795     1.290852    -0.076267
 H    -4.023416     0.489433     0.941077
 H    -4.185661     2.267953     0.960843
 C    -3.439044     2.723216    -1.676184
 H    -2.826430     2.718219    -2.587689
 H    -4.493226     2.757758    -1.997835
 H    -3.240111     3.653847    -1.125589
 H     0.010601     2.164556     1.153432
 C    -1.489237     3.699363     1.039181
 H    -1.063386     4.281459     1.873054
 H    -1.132374     4.160566     0.110289
 H    -2.580785     3.827795     1.084742
 C    -1.537236     1.715496     2.553200
 H    -1.222852     0.680291     2.729401
 H    -1.099566     2.341351     3.347788
 H    -2.630161     1.754448     2.669464
 C     1.860356    -0.374533     1.927523
 H     0.855155     0.002002     2.189448
 H     1.977394    -1.355208     2.423848
 C     2.930323     0.573322     2.425451
 H     2.964780     0.503775     3.526602
 H     3.908591     0.214356     2.060571
 C     2.719804     2.020034     2.005984
 H     1.784844     2.391414     2.461590
 H     2.562717     2.049419     0.916929
 C     3.871678     2.934054     2.387450
 H     4.044135     2.932556     3.475937
 H     4.809369     2.613391     1.905843
 H     3.682016     3.974886     2.083291
 H     1.254718    -3.189615     1.368993
 C     0.950466    -4.387645    -0.358311
 H     1.174671    -5.313475     0.194865
 H    -0.140202    -4.266726    -0.399165
 H     1.320145    -4.522719    -1.385479
 C     3.132952    -3.311584     0.343466
 H     3.611746    -2.404210     0.737953
 H     3.439055    -4.163297     0.972510
 H     3.534655    -3.491191    -0.664077
 H     1.058462    -0.205584    -2.111942
 C     3.028057    -1.071100    -2.166511
 H     3.242832    -0.557229    -3.117614
 H     3.489567    -0.493249    -1.354918
 H     3.518749    -2.054045    -2.210874
 C     0.896019    -2.129500    -3.021307
 H    -0.183313    -2.255270    -2.850958
 H     1.033601    -1.708321    -4.029692
 H     1.368260    -3.123325    -3.015384
