  84
scf done:    -4215.166332
 C     0.357617    -3.784212    -0.651850
 H     0.911615    -4.036986    -1.560987
 H     0.887833    -4.017372     0.275627
 C    -1.057279    -3.758679    -0.674148
 H    -1.584749    -4.002689    -1.601718
 H    -1.623103    -3.978784     0.234740
 H    -0.315622    -1.930719     0.950085
Rh    -0.293736    -1.728336    -0.629882
 O     1.445664     0.308634     1.300317
 C     2.995642    -1.709800     0.354648
 C     2.340176     0.574199    -1.250997
 O    -1.709783     1.163814    -1.089248
 C    -3.688598    -0.657178    -0.543423
 C    -2.036468     0.373403     1.529378
 P    -1.941231    -0.220820    -0.196541
 P     1.597803    -0.614512    -0.066961
 C    -0.272730    -1.519049    -2.534707
 O    -0.259312    -1.385652    -3.672805
 C     2.464314     1.185295     1.757055
 H     2.483760     1.097245     2.856219
 H     3.454828     0.855932     1.395683
 C     2.214254     2.624228     1.346463
 H     2.035130     2.660174     0.260941
 H     1.288848     2.983769     1.826705
 C     3.373774     3.546549     1.691657
 H     4.297349     3.145139     1.237976
 H     3.545653     3.539922     2.782734
 C     3.155115     4.971901     1.210511
 H     3.032508     5.003060     0.115659
 H     2.248578     5.410486     1.657447
 H     4.002993     5.623373     1.469861
 C     3.267750    -2.028210     1.688874
 H     2.698368    -1.543758     2.485403
 C     3.701518    -2.372122    -0.658229
 H     3.479899    -2.158991    -1.707773
 C     4.244615    -2.966626     2.012202
 H     4.460547    -3.214816     3.052644
 C     4.680860    -3.308792    -0.348383
 H     5.235394    -3.822166    -1.135482
 C     4.950287    -3.598442     0.990246
Cl     6.168533    -4.763772     1.383034
 C     3.710761     0.853611    -1.322246
 H     4.424600     0.251455    -0.755137
 C     1.449492     1.350852    -2.004413
 H     0.375423     1.151350    -1.942437
 C     4.183819     1.905825    -2.101037
 H     5.250009     2.132735    -2.150719
 C     1.909621     2.407640    -2.783094
 H     1.215776     3.024720    -3.356059
 C     3.275609     2.686945    -2.815632
Cl     3.852334     4.024071    -3.749903
 C    -2.660499     2.159549    -1.439895
 H    -2.498986     2.363732    -2.511974
 H    -3.686009     1.770594    -1.338187
 C    -2.487144     3.434067    -0.637693
 H    -3.246106     4.156540    -0.986314
 H    -2.722668     3.234346     0.421191
 C    -1.096874     4.044504    -0.756573
 H    -0.922047     4.342832    -1.805616
 H    -0.342443     3.268498    -0.546160
 C    -0.878231     5.232620     0.164259
 H    -1.600197     6.040096    -0.037500
 H    -1.000478     4.942119     1.220799
 H     0.132945     5.650949     0.049922
 C    -3.937853    -1.649780    -1.497435
 H    -3.089288    -2.163441    -1.956271
 C    -4.778108    -0.023136     0.071441
 H    -4.607933     0.744094     0.831096
 C    -5.238710    -1.998621    -1.846582
 H    -5.432817    -2.774168    -2.589033
 C    -6.084444    -0.366010    -0.262085
 H    -6.933731     0.123552     0.217155
 C    -6.305953    -1.352397    -1.224016
Cl    -7.927459    -1.784402    -1.641317
 C    -1.332066     1.512966     1.921855
 H    -0.790988     2.092659     1.175051
 C    -2.674819    -0.397572     2.508699
 H    -3.206985    -1.310089     2.227053
 C    -1.288699     1.903170     3.256697
 H    -0.740434     2.796112     3.562477
 C    -2.638057    -0.021895     3.847259
 H    -3.139160    -0.618595     4.611004
 C    -1.946279     1.133186     4.213505
Cl    -1.896691     1.609389     5.877664
