  86
scf done:    -2003.738159
 C    -0.501513    -3.234535    -1.000075
 H    -1.335737    -3.745333    -0.508120
 H    -0.627855    -3.125787    -2.081129
 C     0.808190    -3.349650    -0.455554
 H     0.967680    -3.941556     0.451142
 H     1.669638    -3.333661    -1.128839
 H     0.698234    -1.041230    -1.483775
Rh     0.033028    -1.370603    -0.068434
 O    -1.112784     1.325356    -1.800571
 C    -3.118862    -0.466970    -1.387560
 C    -2.087965     1.328717     0.627387
 O     1.319030     1.158130     1.850262
 C     3.276851    -0.595701     1.181871
 C     2.136278     1.338655    -0.629439
 P     1.663685     0.084092     0.613260
 P    -1.545641     0.168902    -0.679040
 C    -0.713374    -1.901738     1.599439
 O    -1.170991    -2.285278     2.581650
 C    -0.643784     0.947551    -3.068832
 H     0.121776     0.154608    -2.994591
 H    -1.463496     0.586770    -3.715349
 H    -0.197725     1.836876    -3.537254
 H    -2.834954    -1.087657    -2.254165
 H    -3.704058     0.386981    -1.764605
 C    -3.897576    -1.308275    -0.385751
 H    -3.205801    -2.034409     0.074238
 H    -4.262785    -0.667758     0.438270
 C    -5.086791    -2.070326    -0.974898
 H    -4.694924    -2.708368    -1.789538
 C    -5.701985    -2.982598     0.079738
 H    -4.957114    -3.681574     0.490742
 H    -6.530506    -3.576793    -0.335782
 H    -6.104511    -2.393342     0.920733
 C    -6.135325    -1.137153    -1.569622
 H    -6.987098    -1.704022    -1.976286
 H    -5.728204    -0.522431    -2.386483
 H    -6.529506    -0.452252    -0.799440
 H    -1.155785     1.803753     0.979237
 H    -2.432526     0.687830     1.455971
 C    -3.122414     2.372847     0.238337
 H    -2.791690     2.863173    -0.691312
 H    -4.084948     1.881686     0.005624
 C    -3.367114     3.441424     1.307285
 H    -2.394870     3.928422     1.512248
 C    -4.322907     4.505943     0.781691
 H    -3.946390     4.960264    -0.147968
 H    -4.471447     5.312621     1.516245
 H    -5.312117     4.070095     0.562273
 C    -3.878084     2.847231     2.615153
 H    -4.068047     3.634077     3.361453
 H    -3.160829     2.140481     3.059082
 H    -4.826208     2.305987     2.454736
 C     0.761866     0.696943     3.051557
 H    -0.273133     0.342650     2.912980
 H     1.349591    -0.121382     3.504014
 H     0.750228     1.541428     3.755650
 H     3.043288    -1.307782     1.991303
 H     3.865828     0.225792     1.619955
 C     4.017893    -1.311774     0.060435
 H     3.299165    -1.949363    -0.480847
 H     4.386587    -0.571807    -0.673565
 C     5.195186    -2.174714     0.519151
 H     4.797531    -2.911059     1.243042
 C     5.774920    -2.945917    -0.660661
 H     5.007541    -3.564729    -1.151255
 H     6.593888    -3.610505    -0.344553
 H     6.181126    -2.255308    -1.418772
 C     6.272609    -1.357382     1.222607
 H     7.113360    -1.994573     1.538022
 H     5.887497    -0.850389     2.120176
 H     6.677081    -0.583035     0.548504
 H     1.185593     1.816112    -0.921608
 H     2.464597     0.761737    -1.508527
 C     3.162836     2.373522    -0.198204
 H     2.859819     2.786639     0.777086
 H     4.144073     1.889844    -0.039153
 C     3.342450     3.524105    -1.192475
 H     2.354618     4.007516    -1.315061
 C     4.306123     4.562952    -0.631157
 H     3.968018     4.936904     0.347774
 H     4.407011     5.426638    -1.306691
 H     5.311222     4.130171    -0.492757
 C     3.799510     3.040977    -2.564497
 H     3.945149     3.886033    -3.255149
 H     3.070596     2.359091    -3.027987
 H     4.760481     2.503667    -2.489992
