 108
scf done:    -3063.885723
 C    -0.489242    -0.642948    -2.854894
 H    -1.149350    -1.464993    -3.147196
 H    -0.883219     0.352723    -3.073052
 C     0.901569    -0.852725    -2.769874
 H     1.313903    -1.836271    -3.005551
 H     1.604882    -0.029092    -2.911135
 H     0.228788     0.799491    -0.919151
Rh     0.091711    -0.773897    -0.768048
 C    -1.466427     1.310703     1.701711
 C    -2.564165     1.108663    -1.094194
 C    -3.262408    -0.788959     0.981533
 C     2.597151    -1.831077     1.684225
 C     3.640154    -0.713910    -0.636222
 C     2.210119     1.207202     1.093396
 P     2.123814    -0.522177     0.425074
 P    -1.798616     0.137333     0.281248
 C    -0.123516    -2.652447    -0.633194
 O    -0.238890    -3.799786    -0.616446
 H    -0.609281     1.894153     1.335633
 C    -2.589474     2.250899     2.111277
 H    -3.415962     1.699077     2.583449
 H    -2.203628     2.970802     2.853108
 H    -3.002522     2.813752     1.266406
 C    -1.014705     0.479375     2.893742
 H    -0.175584    -0.176317     2.637857
 H    -0.692518     1.151129     3.705378
 H    -1.834712    -0.145182     3.282228
 C    -3.369761     0.426351    -2.029172
 O    -3.568704    -0.880830    -1.777360
 C    -4.327063    -1.660231    -2.651828
 H    -4.327233    -2.676381    -2.237456
 H    -5.370307    -1.303956    -2.721890
 H    -3.887488    -1.683493    -3.664608
 C    -2.253449     2.447433    -1.374591
 O    -1.377659     3.063200    -0.545178
 C    -1.283652     4.457094    -0.551933
 H    -0.649093     4.727460     0.301426
 H    -2.273800     4.931993    -0.436904
 H    -0.812375     4.839510    -1.475392
 C    -2.803097     3.109582    -2.482906
 H    -2.562819     4.154433    -2.676420
 C    -3.921474     1.073319    -3.138414
 H    -4.554422     0.531398    -3.840057
 C    -3.641073     2.419899    -3.348749
 H    -4.067957     2.933515    -4.213296
 C    -4.576198    -0.269102     0.934908
 O    -4.716300     0.983356     0.465406
 C    -5.977825     1.493721     0.156877
 H    -5.806023     2.464842    -0.325645
 H    -6.522973     0.839578    -0.545702
 H    -6.597122     1.644860     1.059014
 C    -3.108009    -2.074280     1.540451
 O    -1.855402    -2.553165     1.662450
 C    -1.668212    -3.860059     2.132711
 H    -0.590822    -4.052268     2.096324
 H    -2.177931    -4.598845     1.492217
 H    -2.020340    -3.972007     3.172913
 C    -4.215866    -2.825589     1.965767
 H    -4.081821    -3.820739     2.384960
 C    -5.684652    -1.014517     1.353657
 H    -6.688022    -0.594393     1.298089
 C    -5.491525    -2.292568     1.859720
 H    -6.351135    -2.879476     2.192369
 H     2.665864    -2.654441     0.952446
 C     3.965662    -1.676957     2.332537
 H     4.224751    -2.598937     2.880193
 H     4.750867    -1.502026     1.583373
 H     3.977574    -0.841005     3.043450
 C     1.498522    -2.224451     2.657521
 H     1.459213    -1.556062     3.525257
 H     0.515818    -2.196459     2.167469
 H     1.678793    -3.247853     3.026577
 C     4.705214     0.206525    -0.701056
 O     4.745968     1.157934     0.248908
 C     5.527097     2.300601     0.066575
 H     5.246054     2.997721     0.867290
 H     6.607448     2.083167     0.143857
 H     5.325805     2.776900    -0.908713
 C     3.729793    -1.849425    -1.470954
 O     2.819513    -2.821727    -1.260833
 C     2.804416    -3.958981    -2.076186
 H     1.961858    -4.571072    -1.732532
 H     3.740302    -4.537511    -1.985355
 H     2.646390    -3.697714    -3.137129
 C     4.731174    -1.970181    -2.442162
 H     4.766212    -2.837606    -3.099412
 C     5.702477     0.104161    -1.680159
 H     6.498478     0.845988    -1.736649
 C     5.694026    -0.974805    -2.553732
 H     6.472357    -1.060085    -3.315807
 C     2.171627     2.254844     0.147537
 O     2.370835     1.903228    -1.136270
 C     1.881500     2.724837    -2.160545
 H     1.996669     2.160452    -3.094304
 H     0.813611     2.947538    -2.005774
 H     2.453489     3.665682    -2.245956
 C     2.127378     1.571826     2.448061
 O     2.214042     0.580260     3.359796
 C     2.172758     0.880274     4.723587
 H     2.285386    -0.074184     5.254771
 H     1.211866     1.336854     5.017697
 H     2.995946     1.553436     5.020311
 C     1.946106     2.907308     2.837917
 H     1.862723     3.168182     3.891641
 C     1.987300     3.587138     0.525484
 H     1.955194     4.372010    -0.229350
 C     1.866672     3.902820     1.873617
 H     1.722502     4.941803     2.180017
