 110
scf done:    -3214.279876
 C     0.641561    -2.610200     1.843073
 H     1.325765    -3.337032     1.394074
 H     1.041145    -2.107467     2.727346
 C    -0.755341    -2.744255     1.665800
 H    -1.148065    -3.586772     1.090417
 H    -1.447186    -2.352729     2.416468
 H    -0.307208    -0.273120     1.684977
Rh    -0.034520    -1.157869     0.397079
 O     2.241420     1.082432     1.492410
 C     3.358298    -1.144693     0.561078
 C     2.602214     1.019612    -1.146971
 O    -2.077510     0.242686    -1.956797
 C    -3.563089    -0.912627    -0.027200
 C    -2.059726     1.570736     0.506914
 P    -1.930576    -0.069762    -0.339024
 P     1.958810     0.016878     0.276777
 C     0.227691    -2.225829    -1.163725
 O     0.334104    -2.865163    -2.113341
 C     1.261331     1.963590     2.007821
 H     0.307472     1.801188     1.479520
 C     1.741860     3.383328     1.769650
 H     1.872443     3.566099     0.692584
 H     2.713389     3.542617     2.263592
 H     1.017989     4.112328     2.161623
 C     1.059705     1.642332     3.475500
 H     0.701999     0.607513     3.578901
 H     2.012769     1.737657     4.019104
 H     0.321020     2.323815     3.924178
 C     3.809274    -1.885282    -0.546360
 O     3.156524    -1.637093    -1.697978
 C     3.496652    -2.316767    -2.868634
 H     2.816598    -1.946819    -3.645869
 H     4.538694    -2.113341    -3.171293
 H     3.354130    -3.406145    -2.763930
 C     3.904936    -1.451191     1.822402
 O     3.375239    -0.840774     2.898691
 C     3.857121    -1.142840     4.171953
 H     3.269112    -0.539172     4.875785
 H     4.924289    -0.880471     4.286036
 H     3.726192    -2.210969     4.422602
 C     4.943574    -2.388759     1.936763
 H     5.382036    -2.610794     2.908590
 C     4.839616    -2.825123    -0.440120
 H     5.187447    -3.375640    -1.313340
 C     5.406091    -3.054598     0.808182
 H     6.213994    -3.783448     0.908330
 C     3.747634     1.827477    -0.980222
 O     4.437930     1.663204     0.158251
 C     5.516672     2.496051     0.453314
 H     5.875317     2.195513     1.446105
 H     6.341443     2.381814    -0.272757
 H     5.218228     3.558997     0.488341
 C     1.955940     1.047937    -2.399329
 O     0.966304     0.169817    -2.589904
 C     0.307000     0.112348    -3.819951
 H    -0.450390    -0.672115    -3.722853
 H     1.005071    -0.137323    -4.639585
 H    -0.204104     1.060416    -4.053731
 C     2.365957     1.939803    -3.403812
 H     1.854089     1.965743    -4.364714
 C     4.150594     2.732246    -1.974338
 H     5.020889     3.370648    -1.827829
 C     3.445809     2.782213    -3.170510
 H     3.760913     3.480067    -3.950566
 C    -3.314902     0.555475    -2.597188
 H    -4.096464     0.685388    -1.831205
 C    -3.690239    -0.608509    -3.495917
 H    -3.726074    -1.541426    -2.918370
 H    -2.941655    -0.731307    -4.294593
 H    -4.671739    -0.442102    -3.965580
 C    -3.185087     1.858914    -3.361599
 H    -2.964994     2.690433    -2.681922
 H    -2.375038     1.796496    -4.104302
 H    -4.123212     2.075476    -3.895254
 C    -4.723652    -0.301718     0.489971
 O    -4.751442     1.044342     0.481566
 C    -5.724537     1.733903     1.209275
 H    -5.443451     2.794357     1.173134
 H    -6.731573     1.611760     0.772694
 H    -5.750577     1.407447     2.263351
 C    -3.634323    -2.299806    -0.280071
 O    -2.628438    -2.826537    -0.998797
 C    -2.593199    -4.203414    -1.250689
 H    -1.674958    -4.386759    -1.820889
 H    -3.462899    -4.528382    -1.847995
 H    -2.560122    -4.788874    -0.315669
 C    -4.722639    -3.068370     0.154495
 H    -4.745948    -4.144148    -0.011795
 C    -5.814670    -1.058449     0.934473
 H    -6.689932    -0.572740     1.364326
 C    -5.789297    -2.439460     0.783366
 H    -6.637871    -3.035219     1.128363
 C    -2.429248     1.612068     1.865868
 O    -2.787506     0.432359     2.406786
 C    -2.922334     0.308169     3.792094
 H    -3.104798    -0.755606     3.990059
 H    -2.003796     0.622135     4.316403
 H    -3.775921     0.892301     4.180394
 C    -1.552211     2.753727    -0.060873
 O    -1.014616     2.665667    -1.292549
 C    -0.368902     3.776302    -1.846075
 H     0.049915     3.445700    -2.803861
 H     0.460817     4.125168    -1.208197
 H    -1.066409     4.614007    -2.025033
 C    -1.565615     3.960809     0.657093
 H    -1.199311     4.878080     0.199176
 C    -2.418125     2.802274     2.598180
 H    -2.723111     2.815884     3.643925
 C    -2.007007     3.975331     1.972596
 H    -2.004893     4.914193     2.531519
