 108
scf done:    -2691.568690
 C    -0.776802    -4.591732    -1.180700
 H    -1.377225    -5.194733    -0.492014
 H    -1.247926    -4.426076    -2.153952
 C     0.641831    -4.630899    -1.088949
 H     1.117156    -5.260635    -0.330477
 H     1.242001    -4.493873    -1.993117
 H     0.024020    -2.269836    -1.841171
Rh    -0.069155    -2.749525    -0.318510
 O    -1.291681     0.190287    -1.007133
 C    -3.278840    -1.759352    -1.290606
 C    -2.433056    -0.725483     1.359761
 O     1.907779    -0.388007     1.190302
 C     3.378870    -2.261211    -0.132875
 C     1.889623    -0.099913    -1.474926
 P     1.753124    -1.372860    -0.143495
 P    -1.769867    -1.234233    -0.314529
 C    -0.221762    -3.400765     1.465604
 O    -0.336829    -3.821414     2.528513
 C    -2.139090     1.174554    -1.573544
 H    -2.543726     0.797811    -2.531258
 H    -2.990485     1.386744    -0.907858
 C    -1.344952     2.436852    -1.814352
 H    -0.891704     2.746963    -0.861078
 H    -0.508604     2.222008    -2.501273
 C    -2.203721     3.568426    -2.358251
 H    -3.032580     3.758325    -1.652982
 H    -2.676770     3.255772    -3.306708
 C    -1.416330     4.850132    -2.576824
 H    -0.964007     5.200293    -1.635252
 H    -0.594881     4.696626    -3.294480
 H    -2.053658     5.659382    -2.964201
 H    -3.030037    -1.523077    -2.337316
 H    -3.235654    -2.855607    -1.211718
 C    -4.641506    -1.267755    -0.905423
 C    -5.367743    -1.938982     0.090440
 H    -4.948648    -2.838468     0.550208
 C    -5.228364    -0.151794    -1.507932
 H    -4.693945     0.364865    -2.308136
 C    -6.619386    -1.478310     0.486189
 H    -7.173639    -2.010663     1.262878
 C    -6.483239     0.330811    -1.120628
 C    -7.054894     1.552296    -1.779787
 H    -6.399308     2.424622    -1.626867
 H    -7.154670     1.409206    -2.867245
 H    -8.047255     1.801827    -1.379277
 C    -7.171855    -0.343862    -0.107853
 H    -8.154570     0.015135     0.209505
 H    -3.305074    -1.361463     1.571579
 H    -1.638774    -1.019543     2.060379
 C    -2.753602     0.726699     1.530871
 C    -1.711798     1.649456     1.679254
 H    -0.678095     1.297001     1.701593
 C    -4.071875     1.196373     1.505893
 H    -4.890489     0.481154     1.395103
 C    -1.988753     3.011017     1.769891
 H    -1.167927     3.725030     1.877198
 C    -4.366261     2.560065     1.594743
 C    -5.789013     3.040186     1.580334
 H    -6.472421     2.248997     1.242109
 H    -6.110974     3.352602     2.587463
 H    -5.913310     3.910711     0.918066
 C    -3.304117     3.465945     1.715697
 H    -3.512890     4.537655     1.779119
 C     1.613848    -0.881247     2.480576
 H     0.518034    -0.901498     2.627159
 H     1.970420    -1.920408     2.599248
 C     2.273289     0.006807     3.515130
 H     2.039764    -0.404122     4.512902
 H     3.368992    -0.069663     3.401304
 C     1.856293     1.468124     3.435753
 H     0.768182     1.544404     3.608939
 H     2.033705     1.825267     2.409165
 C     2.598949     2.352913     4.422857
 H     2.435054     2.028131     5.463272
 H     3.685113     2.328229     4.236956
 H     2.275485     3.402229     4.347661
 H     3.389197    -2.792610     0.834581
 H     3.272665    -3.044388    -0.898751
 C     4.627324    -1.459799    -0.341262
 C     5.425913    -1.677839    -1.470869
 H     5.143098    -2.451022    -2.190615
 C     5.013166    -0.470096     0.567993
 H     4.377152    -0.270681     1.431748
 C     6.580862    -0.926035    -1.671907
 H     7.205282    -1.112413    -2.549367
 C     6.155492     0.308860     0.370575
 C     6.481252     1.421035     1.323388
 H     5.825149     2.286709     1.130400
 H     6.319557     1.118546     2.369036
 H     7.523206     1.756052     1.219481
 C     6.944151     0.060909    -0.758084
 H     7.849172     0.651355    -0.924836
 H     2.352335    -0.627822    -2.324061
 H     0.838328     0.086249    -1.737971
 C     2.584458     1.196728    -1.181344
 C     1.979187     2.136622    -0.339794
 H     1.016019     1.900316     0.113096
 C     3.812856     1.518798    -1.765875
 H     4.298502     0.789536    -2.419715
 C     2.600849     3.354743    -0.081355
 H     2.119716     4.080398     0.580029
 C     4.449285     2.739580    -1.523988
 C     5.771452     3.061678    -2.158660
 H     5.733106     4.019925    -2.700479
 H     6.564848     3.150208    -1.398786
 H     6.078395     2.278587    -2.865012
 C     3.828839     3.655590    -0.666065
 H     4.309562     4.617095    -0.462901
