  78
scf done:    -2298.734580
 C     0.906255    -3.392417     0.791759
 H     1.580169    -3.884650     0.084147
 H     1.331038    -3.261816     1.790409
 C    -0.496378    -3.536568     0.641943
 H    -0.885112    -4.139938    -0.185092
 H    -1.144630    -3.515415     1.522290
 H    -0.169220    -1.213521     1.590896
Rh     0.078836    -1.539716     0.049144
 O     2.145732     0.700021     1.625812
 C     3.480116    -0.579704    -0.344655
 C     1.669894     1.516767    -0.801712
 O    -1.909541     0.464397    -1.629648
 C    -3.368171    -0.786343     0.336757
 C    -1.597931     1.354314     0.946296
 P    -1.706293    -0.139969    -0.104227
 P     1.807949    -0.023191     0.179629
 C     0.156040    -2.002000    -1.801142
 O     0.121568    -2.289301    -2.911178
 C     2.011499     0.036222     2.879419
 H     1.040438    -0.493114     2.876881
 C     1.991008     1.122384     3.932954
 H     1.178726     1.833248     3.725130
 H     2.945299     1.672079     3.940099
 H     1.833550     0.687817     4.931353
 C     3.121579    -0.977953     3.077720
 H     3.093407    -1.748300     2.292940
 H     4.108108    -0.490491     3.041774
 H     3.012612    -1.478713     4.051634
 C     3.642435    -1.772094    -1.051314
 C     4.604037     0.199045    -0.039368
 C     6.026509    -1.403946    -1.153437
 C     5.870827    -0.214123    -0.438629
 C     4.911996    -2.180284    -1.461469
 H     2.764903    -2.384669    -1.268386
 H     5.029522    -3.113905    -2.016836
 H     7.022165    -1.725773    -1.468604
 H     6.744288     0.396081    -0.195510
 H     4.477785     1.130847     0.517280
 C     1.953486     2.770626    -0.251032
 C     1.254449     1.427908    -2.134408
 C     1.415776     3.828093    -2.357780
 C     1.134646     2.577842    -2.910029
 C     1.825129     3.920434    -1.028171
 H     2.249793     2.835499     0.796775
 H     2.042000     4.897457    -0.588591
 H     1.314070     4.730805    -2.965280
 H     0.808243     2.497469    -3.949469
 H     1.004813     0.456437    -2.565977
 C    -3.051007     1.191082    -2.097163
 H    -3.534459     1.697096    -1.241081
 C    -4.038381     0.240329    -2.749142
 H    -4.418082    -0.501625    -2.034929
 H    -3.548583    -0.293798    -3.577707
 H    -4.896501     0.798308    -3.153314
 C    -2.548244     2.235810    -3.073837
 H    -1.838582     2.926850    -2.599199
 H    -2.031587     1.745283    -3.912723
 H    -3.388874     2.820317    -3.476260
 C    -3.626501    -2.135097     0.065730
 C    -4.395011     0.015712     0.851581
 C    -5.913466    -1.862888     0.788106
 C    -5.661196    -0.521579     1.075083
 C    -4.893678    -2.670043     0.284217
 H    -2.814147    -2.756055    -0.318941
 H    -5.084655    -3.723422     0.065880
 H    -6.907150    -2.281999     0.964539
 H    -6.456208     0.111707     1.476305
 H    -4.204266     1.066360     1.082926
 C    -1.742850     1.230342     2.335605
 C    -1.264863     2.597068     0.404124
 C    -1.264252     3.582099     2.610889
 C    -1.102192     3.706531     1.234174
 C    -1.583286     2.338124     3.161175
 H    -1.983066     0.256696     2.771699
 H    -1.704615     2.231326     4.241896
 H    -1.136242     4.451520     3.260263
 H    -0.834299     4.670409     0.795297
 H    -1.104829     2.693126    -0.670368
