  64
scf done:    -3829.104810
 C    -0.391338    -3.585984    -1.444948
 H    -1.198732    -4.205096    -1.040675
 H    -0.497313    -3.356712    -2.509012
 C     0.901201    -3.676816    -0.870445
 H     1.061143    -4.358149    -0.028438
 H     1.787678    -3.512732    -1.489214
 H     0.663446    -1.284058    -1.656643
Rh     0.008481    -1.801439    -0.294316
 C    -1.791626     0.074272    -2.650785
 C    -3.419761    -0.864219    -0.526890
 C    -1.670676     1.302403    -0.054277
 C     1.579491    -0.169908     2.422388
 C     3.382041    -1.001618     0.425252
 C     1.718366     1.261081    -0.068669
 P     1.641075    -0.441166     0.607175
 P    -1.690352    -0.339624    -0.869121
 C    -0.705568    -2.426906     1.358146
 O    -1.111235    -2.775703     2.374002
 H    -0.845740     0.532644    -2.971848
 H    -1.913089    -0.873324    -3.193386
 H    -2.638138     0.737714    -2.880959
 C    -4.470857     0.060649    -0.471311
 H    -4.267589     1.128250    -0.590845
 C    -3.705052    -2.221352    -0.353826
 H    -2.885698    -2.942581    -0.391063
 C    -5.777884    -0.358351    -0.248181
 H    -6.597459     0.360346    -0.198090
 C    -5.009628    -2.656217    -0.134030
 H    -5.232262    -3.715456     0.003462
 C    -6.039349    -1.719173    -0.081527
Cl    -7.663341    -2.246164     0.200638
 C    -1.528116     2.508764    -0.744414
 H    -1.463329     2.522004    -1.833356
 C    -1.742014     1.333725     1.345926
 H    -1.857454     0.398071     1.901275
 C    -1.437318     3.719635    -0.060090
 H    -1.289805     4.655526    -0.601462
 C    -1.664254     2.533798     2.041535
 H    -1.717326     2.557003     3.131341
 C    -1.497081     3.722945     1.329475
Cl    -1.312054     5.215725     2.188645
 H     1.623860    -1.157557     2.902258
 H     2.420624     0.438513     2.784442
 H     0.624045     0.302515     2.691680
 C     3.660237    -2.356550     0.641150
 H     2.836247    -3.042109     0.852036
 C     4.438935    -0.134806     0.126481
 H     4.246149     0.926226    -0.047379
 C     4.962587    -2.839712     0.574053
 H     5.179143    -3.895597     0.743859
 C     5.746020    -0.608272     0.041583
 H     6.570466     0.065216    -0.198192
 C     6.000656    -1.959358     0.269191
Cl     7.623500    -2.553386     0.166130
 C     1.759972     1.424437    -1.460773
 H     1.755886     0.539169    -2.102347
 C     1.711131     2.403038     0.737498
 H     1.672105     2.317675     1.824060
 C     1.789978     2.689972    -2.034343
 H     1.819656     2.814806    -3.118113
 C     1.725118     3.678495     0.176738
 H     1.678828     4.565528     0.810467
 C     1.757654     3.813475    -1.207366
Cl     1.705710     5.394397    -1.912925
