  78
scf done:    -2298.712314
 C     0.764869    -2.505035     2.269365
 H     1.400052    -3.310732     1.888932
 H     1.189481    -1.973561     3.122991
 C    -0.637344    -2.594595     2.123704
 H    -1.071653    -3.476517     1.643870
 H    -1.289454    -2.121659     2.863025
 H    -0.142538    -0.099099     1.881923
Rh     0.132591    -1.133359     0.704348
 O     2.437020     1.095233     1.796529
 C     3.620226    -0.628440     0.104662
 C     1.926140     1.510927    -0.773615
 O    -1.473134     0.837457    -1.567184
 C    -3.100852    -1.183940    -0.769208
 C    -2.583526     1.091727     0.888742
 P    -1.713190    -0.090760    -0.212751
 P     2.006218     0.183028     0.479181
 C     0.404579    -2.348158    -0.746562
 O     0.542034    -3.070694    -1.628055
 C     2.381107     0.558783     3.092795
 H     1.348664     0.276972     3.359451
 H     3.033996    -0.325089     3.199266
 H     2.732071     1.341404     3.780008
 C     3.625860    -2.023460     0.005372
 H     2.683813    -2.555504     0.141033
 C     4.839651     0.084599    -0.017007
 C     4.949586     1.579428     0.082678
 H     4.295697     1.981305     0.865789
 H     4.652269     2.059186    -0.863197
 H     5.987276     1.872050     0.295959
 C     4.796344    -2.735648    -0.242392
 H     4.769280    -3.824767    -0.319353
 C     6.004337    -0.653240    -0.258972
 H     6.951399    -0.114640    -0.353479
 C     5.993054    -2.041228    -0.378334
 H     6.925935    -2.577767    -0.568774
 C     2.375667     1.185765    -2.060338
 H     2.827750     0.205467    -2.237307
 C     1.336917     2.770067    -0.531813
 C     0.807582     3.188214     0.809619
 H     1.624229     3.339104     1.528333
 H     0.149067     2.420697     1.244413
 H     0.238184     4.122774     0.722593
 C     2.271685     2.089694    -3.112174
 H     2.634948     1.816994    -4.105702
 C     1.248255     3.664631    -1.606428
 H     0.799327     4.645998    -1.429870
 C     1.706099     3.341231    -2.880676
 H     1.619291     4.068123    -3.691840
 C    -0.882367     0.231776    -2.691304
 H     0.062538    -0.267959    -2.424630
 H    -1.562451    -0.505495    -3.153377
 H    -0.660629     1.029676    -3.412437
 C    -2.939822    -2.559428    -0.574946
 H    -2.027741    -2.904913    -0.088102
 C    -4.281236    -0.706538    -1.390172
 C    -4.561455     0.747615    -1.625073
 H    -3.705505     1.250669    -2.092942
 H    -4.755456     1.265772    -0.672607
 H    -5.444800     0.873247    -2.265859
 C    -3.908846    -3.476181    -0.974010
 H    -3.752959    -4.544464    -0.808120
 C    -5.239278    -1.645293    -1.789706
 H    -6.151021    -1.284774    -2.274053
 C    -5.066729    -3.012711    -1.587713
 H    -5.840169    -3.712611    -1.913696
 C    -3.090728     0.445354     2.027807
 H    -2.948310    -0.634561     2.126327
 C    -2.746366     2.485940     0.747994
 C    -2.315428     3.294664    -0.442809
 H    -3.062013     3.217958    -1.249536
 H    -1.366990     2.957949    -0.869719
 H    -2.238228     4.356090    -0.167821
 C    -3.755539     1.139903     3.028134
 H    -4.143786     0.608197     3.899587
 C    -3.405946     3.167258     1.785087
 H    -3.529086     4.249911     1.692173
 C    -3.907551     2.520089     2.906948
 H    -4.415540     3.093084     3.686369
