  88
scf done:    -2305.480140
 C    -0.599062     0.212597    -3.697480
 H    -1.266056    -0.543708    -4.124324
 H    -0.959923     1.237260    -3.822249
 C     0.800373    -0.033333    -3.652852
 H     1.195891    -0.974717    -4.048134
 H     1.495108     0.807670    -3.737020
 H     0.291063     1.347837    -1.575844
Rh    -0.003561    -0.217097    -1.668207
 C    -2.172485     2.135682    -0.150570
 C    -3.392523    -0.416919    -1.098946
 C    -1.891790    -0.211905     1.438791
 C     2.304402    -2.014607     0.328141
 C     3.381305     0.271852    -1.237077
 C     1.892417     0.653291     1.274026
 P     1.864968    -0.311925    -0.309375
 P    -1.839311     0.309631    -0.346618
 C    -0.377547    -2.068248    -1.872159
 O    -0.632678    -3.173221    -2.067541
 H    -1.178064     2.486974     0.169850
 C    -2.460799     2.779047    -1.499916
 H    -2.441120     3.876079    -1.403040
 H    -1.707004     2.486482    -2.243849
 H    -3.454884     2.502161    -1.884365
 C    -3.185810     2.551860     0.910043
 H    -2.908672     2.205000     1.914901
 H    -3.227227     3.652438     0.954413
 H    -4.199131     2.187697     0.691234
 H    -3.143861    -1.473432    -1.282362
 H    -3.437749     0.046063    -2.096266
 C    -4.702516    -0.296066    -0.383752
 C    -5.655046     0.652607    -0.778935
 H    -5.441797     1.298964    -1.634419
 C    -5.016225    -1.133454     0.696384
 H    -4.308683    -1.908617     1.002848
 C    -6.864843     0.783875    -0.101686
 H    -7.590987     1.531674    -0.429793
 C    -6.224302    -1.002980     1.378488
 H    -6.444879    -1.666470     2.218276
 C    -7.151318    -0.038510     0.987221
 H    -8.099070     0.063577     1.520868
 H    -2.938760    -0.160699     1.783249
 H    -1.355719     0.588980     1.969195
 C    -1.281943    -1.533901     1.801337
 C    -0.461855    -1.634434     2.933981
 H    -0.285103    -0.743708     3.543380
 C    -1.513240    -2.698509     1.059857
 H    -2.149003    -2.662759     0.175042
 C     0.121683    -2.844841     3.302548
 H     0.760239    -2.891825     4.187993
 C    -0.926860    -3.910892     1.417790
 H    -1.109817    -4.796481     0.805083
 C    -0.102498    -3.989330     2.538927
 H     0.362075    -4.938017     2.817091
 H     1.316649    -2.370048     0.669093
 C     2.749490    -2.913435    -0.820558
 H     2.682643    -3.970836    -0.520664
 H     2.127333    -2.780885    -1.717414
 H     3.795258    -2.717803    -1.100250
 C     3.269113    -2.096574     1.506118
 H     2.886938    -1.579067     2.396390
 H     3.408646    -3.153197     1.787803
 H     4.258646    -1.682212     1.264789
 H     3.072883     1.226159    -1.689802
 H     3.466437    -0.432416    -2.078072
 C     4.685892     0.413365    -0.514106
 C     5.698935    -0.543947    -0.659193
 H     5.540935    -1.391474    -1.331019
 C     4.934820     1.510249     0.323969
 H     4.179883     2.293927     0.427875
 C     6.902836    -0.431521     0.032197
 H     7.675764    -1.192764    -0.099158
 C     6.136841     1.625083     1.019148
 H     6.304721     2.488526     1.667560
 C     7.123830     0.650211     0.883286
 H     8.066446     0.739924     1.428145
 H     2.935887     0.685566     1.631479
 H     1.347464     0.013998     1.983956
 C     1.297566     2.031828     1.302542
 C     1.477262     2.965397     0.273543
 H     2.035519     2.689309    -0.620897
 C     0.552123     2.430267     2.421301
 H     0.412328     1.724783     3.245237
 C     0.923306     4.241769     0.355633
 H     1.069781     4.944846    -0.467653
 C    -0.005466     3.704136     2.508361
 H    -0.587537     3.982707     3.390089
 C     0.175333     4.616565     1.470389
 H    -0.265054     5.614447     1.529558
