 104
scf done:    -2239.435884
 C    -0.932958    -3.091187    -1.513208
 H    -1.732808    -3.641659    -1.007110
 H    -1.212507    -2.719347    -2.503703
 C     0.423283    -3.432719    -1.252571
 H     0.652726    -4.235900    -0.545413
 H     1.162854    -3.321679    -2.050078
 H     0.405144    -0.913911    -1.697760
Rh    -0.041564    -1.552927    -0.299710
 O    -0.839189     1.592944     0.282777
 C    -2.137653     0.629857    -1.988599
 C    -3.035938     0.030132     0.707061
 O     1.961079     0.226569     1.840270
 C     3.455721    -1.475269     0.349777
 C     2.317375     0.984187    -0.644790
 P     1.894105    -0.496665     0.340343
 P    -1.512379     0.194670    -0.311077
 C    -0.617893    -2.374648     1.314860
 O    -1.030480    -2.896682     2.253204
 C    -1.424736     2.878356     0.324051
 H    -1.209755     3.402536    -0.626406
 H    -2.522111     2.815364     0.424430
 C    -0.845519     3.651721     1.491951
 H    -1.263674     4.673727     1.463663
 H    -1.202209     3.196440     2.430993
 C     0.675634     3.700184     1.496877
 H     1.026730     4.140129     0.545994
 H     1.058874     2.668185     1.519206
 C     1.248917     4.482534     2.666162
 H     0.906186     5.530188     2.666630
 H     0.946476     4.037150     3.627928
 H     2.349442     4.491682     2.640226
 H    -1.254133     1.017374    -2.524390
 H    -2.337240    -0.353440    -2.448233
 C    -3.340629     1.546656    -2.163719
 H    -4.194185     1.166610    -1.576370
 H    -3.123955     2.551103    -1.766836
 C    -3.766345     1.673972    -3.621146
 H    -3.991900     0.669358    -4.022897
 H    -2.915229     2.048386    -4.218544
 C    -4.969146     2.583929    -3.827283
 H    -5.814677     2.207043    -3.224607
 H    -4.738509     3.585408    -3.422219
 C    -5.392079     2.705657    -5.282278
 H    -6.262533     3.368797    -5.399038
 H    -5.663070     1.723832    -5.702676
 H    -4.577475     3.113625    -5.902108
 H    -2.673813    -0.090997     1.741611
 H    -3.630591     0.958683     0.681442
 C    -3.886215    -1.167468     0.303987
 H    -4.313311    -1.003608    -0.701412
 H    -3.237470    -2.054446     0.208984
 C    -5.009410    -1.460639     1.288068
 H    -5.652154    -0.567407     1.394420
 H    -4.572863    -1.638011     2.287654
 C    -5.864100    -2.656137     0.891621
 H    -6.293813    -2.477687    -0.110236
 H    -5.213587    -3.541821     0.783121
 C    -6.978266    -2.956350     1.880997
 H    -7.577117    -3.825081     1.568233
 H    -7.663658    -2.099455     1.983740
 H    -6.573850    -3.174526     2.882497
 C     1.825907    -0.537459     3.019124
 H     1.311893    -1.493043     2.805914
 H     2.831091    -0.786361     3.405294
 C     1.043045     0.251197     4.047797
 H     1.119339    -0.267689     5.019446
 H     1.536395     1.230879     4.177060
 C    -0.417345     0.449490     3.668412
 H    -0.909906    -0.536684     3.621986
 H    -0.460217     0.860194     2.646845
 C    -1.173299     1.350275     4.630399
 H    -1.177904     0.938896     5.652865
 H    -0.716970     2.352147     4.684648
 H    -2.222595     1.481028     4.322681
 H     4.239346    -0.887290     0.857394
 H     3.253886    -2.361641     0.974315
 C     3.895749    -1.908500    -1.041563
 H     3.027882    -2.326761    -1.578193
 H     4.215363    -1.024308    -1.620627
 C     5.023061    -2.931109    -1.026857
 H     4.696233    -3.820910    -0.458608
 H     5.886709    -2.521538    -0.471408
 C     5.470835    -3.358084    -2.417672
 H     4.600819    -3.758868    -2.967374
 H     5.794783    -2.466153    -2.983090
 C     6.587863    -4.388922    -2.403774
 H     6.888939    -4.677173    -3.422376
 H     6.278000    -5.305788    -1.876850
 H     7.482482    -4.002102    -1.889402
 H     2.419940     0.631498    -1.684383
 H     1.401352     1.595567    -0.617602
 C     3.527307     1.786119    -0.193484
 H     3.411905     2.040367     0.872606
 H     4.440723     1.169309    -0.261807
 C     3.725439     3.058715    -1.005341
 H     2.796713     3.656575    -0.972508
 H     3.875207     2.799560    -2.069527
 C     4.888354     3.913097    -0.521336
 H     4.727905     4.165499     0.542069
 H     5.815342     3.313007    -0.547803
 C     5.079482     5.187737    -1.327044
 H     5.924517     5.784884    -0.951952
 H     4.179821     5.823022    -1.287031
 H     5.275323     4.964263    -2.388254
