  68
scf done:    -1768.048107
 C     3.688608     1.128284    -0.200044
 H     4.236687     0.824333     0.697529
 H     4.099706     0.720069    -1.128216
 C     3.027000     2.387478    -0.221485
 H     3.071849     3.034941     0.659874
 H     2.937642     2.930610    -1.166605
 H     1.613865     0.819117    -1.662125
Rh     1.560872     0.818357    -0.061065
 O    -0.436878    -1.714258    -0.681835
 C     2.070083    -2.110872    -1.837721
 C     1.549508    -2.571358     0.981690
 O    -1.808597     1.491387     0.361575
 C    -0.393289     3.630342    -0.576999
 C    -1.160570     1.254124    -2.176804
 P    -0.457893     1.788056    -0.568163
 P     1.169672    -1.402518    -0.390178
 C     1.577888     0.815303     1.838208
 O     1.646108     0.789692     2.986285
 C    -1.018314    -2.943967    -1.063565
 H    -0.965769    -3.042277    -2.164470
 H    -0.471128    -3.798767    -0.629087
 C    -2.462231    -2.971837    -0.603917
 H    -2.921019    -3.904161    -0.978501
 H    -2.483461    -3.035651     0.497012
 C    -3.268623    -1.763260    -1.056744
 H    -3.221250    -1.685089    -2.158076
 H    -2.785580    -0.854176    -0.666529
 C    -4.718641    -1.806779    -0.605510
 H    -5.244974    -2.690087    -1.002668
 H    -4.791190    -1.847891     0.493450
 H    -5.268754    -0.913291    -0.937860
 H     3.073571    -1.661950    -1.752929
 C     2.170088    -3.616495    -2.031066
 H     1.193917    -4.085548    -2.215003
 H     2.621041    -4.115168    -1.159749
 H     1.613784    -1.616192    -2.711444
 H     2.808310    -3.846378    -2.898549
 H     1.250960    -3.596265     0.706173
 C     3.010960    -2.523440     1.402882
 H     3.314717    -1.496946     1.656049
 H     3.680037    -2.873996     0.601736
 H     0.894809    -2.258473     1.811369
 H     3.187199    -3.158922     2.283645
 C    -1.803220     1.749690     1.750292
 H    -0.767520     1.861563     2.119698
 H    -2.320954     2.708305     1.935325
 C    -2.495916     0.622622     2.487402
 H    -2.685203     0.949168     3.525129
 H    -3.486375     0.468164     2.023683
 C    -1.708163    -0.679696     2.483390
 H    -0.758665    -0.521607     3.022496
 H    -1.430901    -0.924770     1.445513
 C    -2.462400    -1.838474     3.113524
 H    -2.716453    -1.632727     4.166098
 H    -3.407864    -2.037373     2.583175
 H    -1.870037    -2.766629     3.092794
 H     0.409593     3.887689    -1.287905
 C    -1.670647     4.412599    -0.838755
 H    -2.513309     4.010219    -0.256613
 H    -1.958647     4.386367    -1.898741
 H     0.022469     3.876528     0.414916
 H    -1.543146     5.470479    -0.561392
 H    -1.003430     0.164242    -2.157737
 C    -2.613156     1.576706    -2.490837
 H    -2.772180     2.641697    -2.704779
 H    -3.266140     1.303222    -1.650828
 H    -0.467924     1.647976    -2.939163
 H    -2.943055     1.010098    -3.375523
