  88
scf done:    -4515.972605
 C     1.313148     0.548342    -3.915045
 H     1.979372     1.405472    -4.047235
 H     1.756778    -0.415109    -4.176699
 C    -0.083995     0.725386    -3.965472
 H    -0.507194     1.719865    -4.132441
 H    -0.728864    -0.102114    -4.271193
 H     0.323922    -1.081840    -2.206306
Rh     0.524838     0.460186    -1.891579
 O     1.814009    -1.912123    -0.009830
 O     3.516696    -0.823021    -1.590833
 O     2.839222     0.220861     0.641428
 O    -1.457273     0.393633     0.863238
 O    -2.561171     1.294681    -1.253912
 O    -2.120707    -1.248060    -0.867373
 P    -1.397162     0.215293    -0.770471
 P     2.145293    -0.498040    -0.704449
 C     0.740882     2.361489    -1.618033
 O     0.819886     3.496225    -1.509818
 C     2.429892    -2.485475     1.148815
 H     2.582704    -3.548981     0.907890
 H     3.415549    -2.032813     1.324138
 C     1.540751    -2.325522     2.361087
 H     2.077717    -2.754849     3.225557
 H     1.426595    -1.248337     2.570926
 C     0.174398    -2.978924     2.218043
 H     0.308958    -4.052182     1.996033
 H    -0.333133    -2.552210     1.337726
 C    -0.691789    -2.817726     3.456480
 H    -0.203204    -3.243758     4.347637
 H    -0.889547    -1.754525     3.669551
 H    -1.662671    -3.322419     3.339697
 C     4.532948    -1.624496    -1.139960
 C     4.513152    -2.985839    -1.442516
 H     3.681340    -3.387102    -2.023920
 C     5.583601    -1.080736    -0.400506
 H     5.589655    -0.012693    -0.176597
 C     5.540033    -3.811316    -0.995645
 H     5.537304    -4.878259    -1.224056
 C     6.612384    -1.903841     0.048129
 H     7.440292    -1.493182     0.628108
 C     6.583427    -3.266531    -0.247266
Cl     7.860237    -4.292555     0.316179
 C     3.181181     1.536050     0.699211
 C     3.735115     2.218174    -0.388016
 H     3.904839     1.696547    -1.331808
 C     2.975211     2.200553     1.909862
 H     2.553625     1.644679     2.749083
 C     4.057945     3.567397    -0.266029
 H     4.478052     4.112370    -1.112561
 C     3.307781     3.544178     2.035468
 H     3.149926     4.070858     2.978103
 C     3.841522     4.226828     0.941517
Cl     4.241449     5.904738     1.090887
 C    -0.942641     1.581283     1.447032
 H    -0.004140     1.871067     0.941024
 H    -1.665736     2.404302     1.300339
 C    -0.687997     1.346081     2.917099
 H    -1.591699     0.905693     3.372474
 H     0.108069     0.588663     3.018212
 C    -0.301759     2.623052     3.650157
 H    -1.151989     3.326490     3.625658
 H     0.513769     3.125889     3.102451
 C     0.121822     2.378028     5.088912
 H    -0.680132     1.889745     5.665221
 H     1.005433     1.720893     5.139253
 H     0.375795     3.317330     5.602380
 C    -3.914068     1.235707    -1.038493
 C    -4.463957     1.170301     0.242772
 H    -3.810459     1.164584     1.114447
 C    -4.743575     1.245301    -2.159031
 H    -4.289052     1.315910    -3.148815
 C    -5.840256     1.044958     0.397410
 H    -6.280085     0.950467     1.391171
 C    -6.121801     1.135628    -2.006759
 H    -6.780190     1.126002    -2.876797
 C    -6.662688     1.014602    -0.727767
Cl    -8.370787     0.804554    -0.533985
 C    -3.281228    -1.674272    -0.260698
 C    -4.383911    -1.946169    -1.068280
 H    -4.300074    -1.805380    -2.146573
 C    -3.351648    -1.860904     1.118070
 H    -2.478447    -1.652942     1.732192
 C    -5.584281    -2.344845    -0.492246
 H    -6.466067    -2.523856    -1.108924
 C    -4.549948    -2.268203     1.696860
 H    -4.624935    -2.403614     2.777111
 C    -5.665646    -2.491244     0.892393
Cl    -7.171550    -2.943744     1.618910
