  70
scf done:    -4280.267570
 C     0.942737    -4.163434    -0.277449
 H     0.342054    -4.640624     0.501112
 H     0.597556    -4.343046    -1.298082
 C     2.281507    -3.821977    -0.034950
 H     2.735202    -4.034767     0.936981
 H     2.987888    -3.725936    -0.862774
 H     1.326361    -1.918780    -1.499121
Rh     1.066237    -2.001646     0.070680
 O    -1.418538    -0.740776    -1.877346
 O    -2.179689    -2.506282    -0.342525
 O    -1.588229    -0.217605     0.652433
 O     3.177853    -0.044451     1.616368
 O     4.091447    -0.986206    -0.617727
 O     2.648370     0.992885    -0.643286
 P     2.707851    -0.495926     0.126154
 P    -1.016266    -1.344060    -0.415218
 C     0.759924    -2.076122     1.972908
 O     0.567490    -2.081206     3.098095
 C    -0.587107     0.179242    -2.556818
 H     0.474886    -0.088440    -2.438744
 H    -0.854922     0.134912    -3.620759
 H    -0.747002     1.201781    -2.182222
 C    -3.526000    -2.245616    -0.461872
 C    -4.106468    -2.080211    -1.717877
 H    -3.484987    -2.175327    -2.608186
 C    -4.297134    -2.143748     0.694095
 H    -3.820957    -2.288173     1.665094
 C    -5.456671    -1.758398    -1.814344
 H    -5.925345    -1.609548    -2.788360
 C    -5.645431    -1.817039     0.602176
 H    -6.254887    -1.704906     1.499790
 C    -6.215054    -1.610452    -0.653545
Cl    -7.883467    -1.162077    -0.772598
 C    -2.728357     0.529896     0.748134
 C    -3.159359     0.827023     2.042326
 H    -2.594424     0.427773     2.886899
 C    -3.422142     1.033521    -0.352886
 H    -3.088936     0.799576    -1.361882
 C    -4.293682     1.605806     2.241700
 H    -4.639904     1.837788     3.250102
 C    -4.561411     1.806468    -0.153793
 H    -5.118330     2.193307    -1.008161
 C    -4.997570     2.088004     1.138983
Cl    -6.420135     3.046339     1.378504
 C     3.941097     1.095975     1.980482
 H     4.996205     0.819081     2.117145
 H     3.874417     1.886803     1.219608
 H     3.535435     1.471177     2.930275
 C     5.323050    -0.405887    -0.460429
 C     6.248409    -1.023438     0.380611
 H     5.961499    -1.938907     0.901053
 C     5.661273     0.758136    -1.150261
 H     4.924101     1.219630    -1.807108
 C     7.511985    -0.466579     0.551159
 H     8.245203    -0.937388     1.207830
 C     6.923958     1.318246    -0.980423
 H     7.203305     2.230479    -1.509947
 C     7.842262     0.706804    -0.127197
Cl     9.411576     1.407228     0.086673
 C     1.609229     1.869815    -0.554872
 C     0.711538     1.881697     0.514309
 H     0.824906     1.179437     1.340591
 C     1.461432     2.785122    -1.600506
 H     2.178402     2.765709    -2.423293
 C    -0.355970     2.776543     0.512449
 H    -1.076509     2.775617     1.330744
 C     0.401073     3.684182    -1.598990
 H     0.271871     4.393323    -2.418157
 C    -0.518503     3.663031    -0.548293
Cl    -1.879083     4.733969    -0.569176
