  82
scf done:    -2599.530333
 C    -0.594031    -3.323118    -0.510241
 H    -1.432639    -3.705190     0.079219
 H    -0.768181    -3.323913    -1.588925
 C     0.723494    -3.382779    -0.008450
 H     0.916871    -3.814927     0.977484
 H     1.574860    -3.427136    -0.691508
 H     0.540641    -1.199458    -1.343174
Rh    -0.001345    -1.338654     0.141250
 O    -1.060466     1.297157    -1.569729
 O    -2.909357    -0.325212    -1.348139
 O    -2.177063     1.000504     0.724534
 O     1.403791     1.145256     1.781233
 O     3.173677    -0.442768     1.126831
 O     2.096874     0.995366    -0.697514
 P     1.673254     0.065879     0.607192
 P    -1.525578     0.142795    -0.543551
 C    -0.694448    -1.596090     1.926835
 O    -1.135976    -1.765047     2.967248
 C    -1.845000     2.000466    -2.519585
 H    -2.569837     1.331554    -3.003201
 H    -2.380011     2.835635    -2.043432
 H    -1.147447     2.393805    -3.271137
 C    -3.566017    -1.476190    -0.997590
 C    -3.863589    -1.761328     0.333831
 H    -3.584017    -1.046903     1.111084
 C    -3.923060    -2.362465    -2.013213
 H    -3.669820    -2.117029    -3.045854
 C    -4.501474    -2.959245     0.677760
 C    -4.794095    -3.259757     2.119125
 H    -3.902209    -3.101398     2.744693
 H    -5.583353    -2.596615     2.509118
 H    -5.130617    -4.296915     2.254833
 C    -4.573390    -3.544474    -1.676283
 H    -4.853266    -4.248976    -2.463207
 C    -4.852529    -3.847545    -0.343047
 H    -5.348576    -4.788254    -0.091252
 C    -2.801838     2.210668     0.570169
 C    -4.142870     2.268589     0.199870
 H    -4.686116     1.335911     0.033015
 C    -2.064501     3.373824     0.793365
 H    -1.017123     3.284387     1.087925
 C    -4.774594     3.506039     0.027820
 C    -6.225792     3.566809    -0.351699
 H    -6.465885     2.836437    -1.138814
 H    -6.867649     3.332555     0.513521
 H    -6.507079     4.566114    -0.712330
 C    -2.688750     4.604870     0.620214
 H    -2.124126     5.525954     0.784560
 C    -4.028522     4.671743     0.235513
 H    -4.505790     5.645527     0.098548
 C     2.351496     1.856395     2.563276
 H     3.264873     1.264861     2.713008
 H     2.607820     2.811562     2.081795
 H     1.878073     2.052450     3.535078
 C     3.782696    -1.546775     0.590515
 C     3.879855    -1.724033    -0.788463
 H     3.455720    -0.971098    -1.456190
 C     4.311552    -2.490701     1.470586
 H     4.214623    -2.327152     2.545094
 C     4.495927    -2.866723    -1.312837
 C     4.558501    -3.064851    -2.799548
 H     5.003292    -2.191569    -3.301232
 H     5.152408    -3.950501    -3.064488
 H     3.548402    -3.197159    -3.219957
 C     4.937581    -3.618568     0.951527
 H     5.354925    -4.365088     1.631568
 C     5.025400    -3.810323    -0.427611
 H     5.510756    -4.706254    -0.822723
 C     2.702632     2.219209    -0.591772
 C     4.082694     2.310577    -0.430972
 H     4.671550     1.391722    -0.385729
 C     1.906120     3.362919    -0.656559
 H     0.829582     3.244460    -0.791995
 C     4.697708     3.562551    -0.311462
 C     6.187810     3.660320    -0.156753
 H     6.566722     2.917085     0.560724
 H     6.695460     3.470600    -1.116832
 H     6.493095     4.658050     0.188410
 C     2.514500     4.607995    -0.534797
 H     1.905182     5.514291    -0.575894
 C     3.895297     4.708181    -0.357789
 H     4.359836     5.692684    -0.258795
