  42
scf done:    -1675.995545
 C    -0.614576    -2.452216    -1.562215
 H    -1.104890    -3.225192    -0.964271
 H    -1.216033    -2.061268    -2.385768
 C     0.788040    -2.374482    -1.602606
 H     1.390956    -3.093112    -1.040330
 H     1.289964    -1.928220    -2.464539
 H    -0.054846     0.068840    -1.659353
Rh     0.017205    -0.775505    -0.310124
 O    -2.045062     1.892833    -0.062480
 O    -3.048217    -0.158070    -1.192824
 O    -2.895180     0.019886     1.259394
 O     1.756494     2.017632     0.556624
 O     3.058215    -0.012074     0.952298
 O     2.637090     0.851362    -1.417866
 P     1.846080     0.493964    -0.046409
 P    -1.958110     0.247639    -0.062166
 C     0.046341    -1.777206     1.320970
 O     0.044305    -2.374881     2.299333
 C    -1.297729     2.662272    -0.980946
 H    -0.215086     2.515458    -0.845206
 H    -1.564260     2.417161    -2.022362
 H    -1.543627     3.716440    -0.792147
 C    -4.371556     0.346264    -1.163045
 H    -4.967193    -0.170751    -0.396103
 H    -4.380986     1.427175    -0.953185
 H    -4.809382     0.162698    -2.153356
 C    -2.465070     0.452941     2.527079
 H    -1.464488     0.058133     2.774352
 H    -2.439367     1.553429     2.580741
 H    -3.181602     0.071816     3.267198
 C     1.130758     2.233671     1.799713
 H     0.162881     1.706714     1.849604
 H     1.771562     1.890954     2.628331
 H     0.955445     3.313318     1.900843
 C     3.525579    -1.339642     0.879415
 H     2.709597    -2.067598     1.017626
 H     4.013204    -1.543250    -0.088846
 H     4.261669    -1.472755     1.683882
 C     3.765353     1.707633    -1.420056
 H     3.455575     2.759790    -1.333603
 H     4.448110     1.469840    -0.589494
 H     4.285033     1.555172    -2.375470
