  50
scf done:    -1532.374675
 C    -3.018532    -0.032106    -1.487801
 H    -3.932074    -0.047874    -0.885208
 H    -2.893169     0.879207    -2.080002
 C    -2.467722    -1.254297    -1.959665
 H    -2.963656    -2.198733    -1.715423
 H    -1.923941    -1.270007    -2.908574
 H    -0.478140     0.253518    -1.526776
Rh    -1.250389    -0.495419    -0.348761
 O     0.300057     2.480629     0.525152
 C    -2.281955     2.452785     1.239739
 C    -0.259860     1.036886     2.639739
 O     1.955792    -0.563082     0.169597
 C     0.924077    -2.995102     0.875813
 C     1.337294    -2.316066    -1.847866
 P     0.729139    -1.587831    -0.282968
 P    -0.845557     1.363936     0.943525
 C    -2.145599    -1.463109     1.026395
 O    -2.651113    -2.060389     1.867868
 C     0.900648     2.558896    -0.762688
 H     1.115082     1.532822    -1.107509
 C     2.204255     3.307176    -0.578181
 H     2.829522     2.795375     0.167487
 H     2.017112     4.332183    -0.222392
 H     2.759099     3.362386    -1.526775
 C    -0.039829     3.231218    -1.744270
 H    -0.957168     2.634910    -1.862521
 H    -0.312655     4.237219    -1.388362
 H     0.429936     3.325861    -2.735244
 H    -3.071635     1.872960     1.740672
 H    -2.002291     3.322197     1.853768
 H    -2.673090     2.794421     0.271154
 H    -1.006215     0.434687     3.178784
 H     0.674999     0.463823     2.562780
 H    -0.071813     1.976142     3.180859
 C     3.329847    -0.927112     0.254022
 H     3.437458    -2.018994     0.111577
 C     3.818507    -0.570834     1.644426
 H     3.246634    -1.118041     2.408119
 H     3.684150     0.506955     1.823888
 H     4.884435    -0.815707     1.765360
 C     4.098332    -0.216166    -0.844001
 H     3.713643    -0.495308    -1.835327
 H     3.995098     0.873410    -0.733113
 H     5.168098    -0.471334    -0.803633
 H     1.931451    -3.438414     0.863239
 H     0.688580    -2.648529     1.892273
 H     0.191353    -3.768425     0.601142
 H     1.365638    -1.525462    -2.610474
 H     2.327711    -2.788522    -1.758481
 H     0.604981    -3.070745    -2.170310
