  78
scf done:    -2147.447994
 C    -0.808136    -1.455980    -2.951868
 H    -1.432759    -2.347676    -2.851199
 H    -1.292091    -0.624661    -3.470691
 C     0.600491    -1.570791    -2.964003
 H     1.068069    -2.556206    -2.879797
 H     1.201922    -0.838859    -3.509767
 H     0.033440     0.626743    -1.715048
Rh    -0.051773    -0.808583    -1.028698
 O    -2.411612     1.564275    -0.565033
 O    -3.294428    -0.744101    -0.585045
 O    -2.130574     0.225057     1.475008
 O     2.644301    -0.983722     1.031012
 O     2.942788     0.721937    -0.722414
 O     1.347837     1.108035     1.235048
 P     1.718107    -0.004561     0.103306
 P    -1.953689     0.054124    -0.152253
 C    -0.160290    -2.548533    -0.244843
 O    -0.238399    -3.596736     0.212515
 C    -1.540599     2.665538    -0.275553
 H    -0.557495     2.265218     0.031426
 C    -2.124720     3.462118     0.873298
 H    -2.239823     2.817489     1.755246
 H    -3.113954     3.861669     0.600690
 H    -1.467501     4.306251     1.132476
 C    -1.376921     3.463554    -1.551093
 H    -0.936784     2.834859    -2.338640
 H    -2.355177     3.825900    -1.903091
 H    -0.722422     4.332947    -1.387249
 C    -4.612466    -0.320689    -0.191731
 H    -4.512284     0.393633     0.642586
 C    -5.355155    -1.549979     0.286222
 H    -4.838594    -2.008621     1.140872
 H    -5.417450    -2.296165    -0.520678
 H    -6.377445    -1.286656     0.596772
 C    -5.276302     0.363723    -1.368872
 H    -4.686568     1.237035    -1.677322
 H    -5.351758    -0.330338    -2.220130
 H    -6.290413     0.696980    -1.100107
 C    -1.422640    -0.574261     2.421392
 H    -0.434451    -0.819110     1.992956
 C    -2.185008    -1.855454     2.698714
 H    -2.321020    -2.442972     1.779461
 H    -3.179472    -1.627675     3.113365
 H    -1.641060    -2.480224     3.422995
 C    -1.224353     0.281869     3.652697
 H    -0.679578     1.197168     3.384537
 H    -2.195698     0.564302     4.087410
 H    -0.644767    -0.261087     4.413951
 C     3.279635    -2.133969     0.461276
 H     2.763761    -2.378821    -0.487529
 C     3.102640    -3.280650     1.433895
 H     2.037812    -3.486878     1.607694
 H     3.572773    -3.034837     2.398690
 H     3.573196    -4.194753     1.042274
 C     4.733841    -1.813387     0.174783
 H     4.809530    -0.956446    -0.507239
 H     5.256673    -1.558727     1.109775
 H     5.238505    -2.679200    -0.280030
 C     2.770551     1.400207    -1.966621
 H     1.901079     0.953668    -2.479052
 C     4.019675     1.156819    -2.786082
 H     4.167858     0.079360    -2.948588
 H     4.906459     1.554639    -2.268621
 H     3.940437     1.648012    -3.767287
 C     2.486707     2.868073    -1.717150
 H     1.559166     2.986362    -1.139368
 H     3.311348     3.334415    -1.155683
 H     2.364081     3.407184    -2.668488
 C     2.333303     1.836189     1.989060
 H     3.272975     1.833338     1.411799
 C     2.561260     1.163729     3.328453
 H     2.893236     0.128376     3.180746
 H     1.634052     1.155793     3.920324
 H     3.330432     1.706144     3.899162
 C     1.824629     3.256825     2.118704
 H     1.690420     3.717975     1.130131
 H     0.854451     3.269563     2.639225
 H     2.534276     3.870028     2.693853
