  96
scf done:    -2534.430040
 C    -1.283292    -3.587965    -0.634950
 H    -1.948262    -3.973601     0.143835
 H    -1.747607    -3.506244    -1.621348
 C     0.115666    -3.763053    -0.519457
 H     0.537713    -4.277339     0.349251
 H     0.731566    -3.821971    -1.420793
 H    -0.225488    -1.492423    -1.637225
Rh    -0.384343    -1.705087    -0.066571
 O    -1.606047     0.978507    -1.539923
 C    -3.590307    -0.798998    -1.048111
 C    -2.554209     0.862506     1.031982
 O     1.554409     0.547513     1.325267
 C     2.966501    -1.690676     0.754331
 C     2.379728     0.237981    -1.272885
 P     1.607918    -0.631189     0.144246
 P    -2.010232    -0.157010    -0.395402
 C    -0.589224    -1.974232     1.819602
 O    -0.703325    -2.117054     2.951015
 C    -2.193866     2.264451    -1.636274
 H    -2.355111     2.463010    -2.710070
 H    -3.186142     2.283943    -1.153716
 C    -1.290931     3.319855    -1.030294
 H    -1.091936     3.046280     0.018302
 H    -0.315837     3.292108    -1.546296
 C    -1.883519     4.718977    -1.089530
 H    -2.862172     4.718801    -0.577657
 H    -2.092225     4.991225    -2.139782
 C    -0.980927     5.767274    -0.459051
 H    -0.789251     5.535561     0.601250
 H    -0.003755     5.809801    -0.965881
 H    -1.426868     6.772247    -0.505813
 C    -4.016069    -0.519425    -2.347044
 H    -3.421462     0.139660    -2.982313
 C    -4.336499    -1.677855    -0.251646
 H    -3.984368    -1.917222     0.757036
 C    -5.191720    -1.098545    -2.827302
 H    -5.528329    -0.879217    -3.843752
 C    -5.515101    -2.259997    -0.718068
 C    -6.302304    -3.210346     0.136857
 H    -6.225147    -4.240940    -0.246426
 H    -5.939999    -3.213194     1.174275
 H    -7.371632    -2.948731     0.148558
 C    -5.935225    -1.953576    -2.021611
 H    -6.855270    -2.401189    -2.408188
 C    -3.871582     1.294122     1.227299
 H    -4.661897     0.976797     0.542953
 C    -1.558764     1.263981     1.930281
 H    -0.530939     0.920222     1.777681
 C    -4.172144     2.122837     2.306671
 H    -5.201301     2.454035     2.466511
 C    -1.845566     2.108380     3.006592
 C    -0.747400     2.561443     3.924825
 H    -0.294426     3.499736     3.561502
 H    -1.118734     2.750442     4.942510
 H     0.054924     1.811923     3.980492
 C    -3.168848     2.529320     3.184348
 H    -3.418781     3.178781     4.028331
 C     2.569901     1.512204     1.539705
 H     2.648346     1.651175     2.631901
 H     3.549486     1.134991     1.198390
 C     2.241101     2.827158     0.861569
 H     2.070245     2.639674    -0.210428
 H     1.286016     3.206283     1.264494
 C     3.337283     3.868171     1.027472
 H     4.283534     3.458910     0.630485
 H     3.516973     4.053811     2.101728
 C     3.018277     5.178474     0.326020
 H     2.868214     5.019397    -0.754027
 H     2.094129     5.628597     0.721858
 H     3.827454     5.914355     0.447573
 C     3.299909    -1.712399     2.111291
 H     2.803093    -1.028385     2.802582
 C     3.582871    -2.594339    -0.120218
 H     3.309195    -2.587550    -1.179894
 C     4.256343    -2.615603     2.572710
 H     4.523109    -2.628796     3.632482
 C     4.539615    -3.506090     0.330472
 C     5.169596    -4.489864    -0.612508
 H     4.641588    -5.457417    -0.577884
 H     5.131618    -4.133468    -1.651726
 H     6.220843    -4.682964    -0.352358
 C     4.872562    -3.499922     1.692360
 H     5.622821    -4.203003     2.064939
 C     1.534754     0.806316    -2.231510
 H     0.456149     0.642316    -2.169372
 C     3.762134     0.451965    -1.359297
 H     4.429119    -0.014833    -0.629320
 C     2.075962     1.600184    -3.241248
 H     1.416381     2.046792    -3.989614
 C     4.315267     1.248823    -2.365304
 C     5.794652     1.498193    -2.428361
 H     6.034752     2.531068    -2.126304
 H     6.344761     0.820382    -1.760650
 H     6.183190     1.361582    -3.449074
 C     3.448757     1.824513    -3.303914
 H     3.861269     2.449293    -4.101659
