  84
scf done:    -2774.059239
 C    -0.531519    -3.740510    -0.271656
 H    -1.184807    -4.080584     0.537612
 H    -0.991275    -3.780873    -1.262736
 C     0.871780    -3.841182    -0.139964
 H     1.305491    -4.264695     0.770982
 H     1.481466    -3.972031    -1.037894
 H     0.470743    -1.684646    -1.471426
Rh     0.245681    -1.762026     0.109577
 O    -1.565760     0.283994    -1.763397
 C    -3.128422    -1.581612    -0.576325
 C    -2.209833     0.683455     0.882494
 O     2.336052     0.578748     1.420296
 C     3.623852    -0.781128    -0.513032
 C     1.711507     1.222953    -1.030795
 P     1.952391    -0.249291     0.023133
 P    -1.636364    -0.553469    -0.344160
 C    -0.023196    -1.891057     1.995034
 O    -0.237653    -1.963084     3.120411
 C    -2.508059     1.274775    -2.148312
 H    -2.629889     1.172424    -3.239923
 H    -3.497634     1.077774    -1.698471
 C    -2.015343     2.665282    -1.810904
 H    -1.925428     2.769781    -0.717842
 H    -0.995993     2.761174    -2.211265
 C    -2.893687     3.775593    -2.365259
 H    -3.901666     3.713390    -1.917581
 H    -3.035767     3.625697    -3.450666
 C    -2.301008     5.154288    -2.117960
 H    -2.169868     5.341329    -1.040017
 H    -1.310342     5.244900    -2.591433
 H    -2.941442     5.953369    -2.520586
 C    -3.739429    -2.190996     0.528407
 H    -3.381063    -1.974860     1.538996
 C    -3.583080    -1.894972    -1.861091
 H    -3.092970    -1.447604    -2.728604
 C    -4.799581    -3.074112     0.358206
 H    -5.289035    -3.553527     1.207862
 C    -4.644368    -2.778960    -2.045548
 H    -5.013425    -3.031587    -3.041229
 C    -5.240638    -3.354833    -0.931559
 F    -6.255464    -4.199266    -1.099397
 C    -3.553114     1.059869     1.025524
 H    -4.329153     0.543471     0.455898
 C    -1.238667     1.340004     1.650214
 H    -0.190492     1.042318     1.562819
 C    -3.919504     2.084138     1.892754
 H    -4.960375     2.388906     2.015079
 C    -1.590474     2.367054     2.519981
 H    -0.846404     2.886764     3.125788
 C    -2.928114     2.729606     2.624016
 F    -3.270949     3.710296     3.452886
 C     2.918870    -0.134920     2.495299
 H     2.316692    -1.033743     2.720865
 H     3.927461    -0.480500     2.205686
 C     2.996801     0.765947     3.707454
 H     3.494690     0.199685     4.513748
 H     3.656160     1.620831     3.476093
 C     1.642704     1.271349     4.182473
 H     0.974393     0.410989     4.360600
 H     1.181719     1.843445     3.361881
 C     1.723837     2.135094     5.429665
 H     2.148456     1.575979     6.278911
 H     2.363479     3.017397     5.265432
 H     0.730393     2.496557     5.736532
 C     4.614834     0.158200    -0.832046
 H     4.376777     1.224823    -0.825738
 C     3.942280    -2.141147    -0.524164
 H     3.162323    -2.860611    -0.267196
 C     5.899476    -0.255064    -1.164545
 H     6.685366     0.457591    -1.421510
 C     5.225000    -2.570254    -0.857489
 H     5.491653    -3.628458    -0.875850
 C     6.185205    -1.617989    -1.174144
 F     7.412650    -2.015716    -1.496305
 C     1.775088     2.520236    -0.512463
 H     1.951637     2.660789     0.554760
 C     1.493838     1.043191    -2.402202
 H     1.416471     0.033009    -2.811190
 C     1.626711     3.625988    -1.348389
 H     1.662046     4.645814    -0.961177
 C     1.366856     2.138129    -3.248955
 H     1.198665     2.017621    -4.320475
 C     1.431688     3.417619    -2.706279
 F     1.271544     4.471242    -3.508453
