  68
scf done:    -2688.776564
 C     0.084562    -3.396261     1.877443
 H    -0.064135    -3.297719     2.956881
 H    -0.605929    -4.087572     1.386626
 C     1.361214    -3.172186     1.319860
 H     2.198923    -2.893903     1.964607
 H     1.656049    -3.675890     0.396530
 H    -0.323726    -2.297371    -0.433235
Rh     0.081361    -1.467631     0.871665
 C    -3.314078    -2.305944     1.326372
 O    -2.773851     0.196758     1.753454
 O    -2.667252    -0.638778    -0.710064
 C     0.099740     0.612293    -1.997754
 O     1.878631     1.129030    -0.004058
 O     2.210187    -0.842645    -1.678876
 P     1.060662    -0.159139    -0.672288
 P    -2.123610    -1.037285     0.819535
 C     0.733385    -0.503321     2.400314
 O     1.200998     0.040346     3.290504
 H    -3.178281    -3.180974     0.675337
 H    -3.074366    -2.594074     2.359018
 H    -4.351485    -1.949694     1.267789
 C    -2.132609     1.404150     1.829064
 C    -2.038827     2.234100     0.709140
 H    -2.483598     1.914923    -0.234493
 C    -1.583903     1.803004     3.046723
 H    -1.668202     1.139283     3.908454
 C    -1.375282     3.453929     0.801838
 H    -1.274405     4.114773    -0.060849
 C    -0.920170     3.022514     3.145411
 H    -0.464644     3.348520     4.081816
 C    -0.818127     3.827138     2.018216
 F    -0.144318     4.977840     2.096916
 C    -3.967612    -0.636625    -1.139351
 C    -4.959168     0.125740    -0.515095
 H    -4.715473     0.709097     0.373275
 C    -4.274678    -1.394145    -2.271208
 H    -3.482626    -1.980024    -2.741097
 C    -6.255985     0.123344    -1.024302
 H    -7.048449     0.708678    -0.554547
 C    -5.567652    -1.392237    -2.785205
 H    -5.829742    -1.974446    -3.670414
 C    -6.545485    -0.632603    -2.153273
 F    -7.785086    -0.629887    -2.640704
 H    -0.554461     1.367409    -1.543186
 H     0.747144     1.075031    -2.753871
 H    -0.529490    -0.164843    -2.450559
 C     2.382493     2.224481    -0.655155
 C     2.124513     3.475720    -0.092423
 H     1.525161     3.535296     0.815197
 C     3.167076     2.121377    -1.806988
 H     3.378310     1.140340    -2.233232
 C     2.634478     4.627451    -0.682846
 H     2.441322     5.612911    -0.255295
 C     3.673320     3.274952    -2.402740
 H     4.287448     3.221461    -3.303479
 C     3.400719     4.513893    -1.837019
 F     3.887497     5.614809    -2.409558
 C     3.151409    -1.719161    -1.212564
 C     3.919170    -1.437160    -0.080915
 H     3.763945    -0.501997     0.459607
 C     3.342008    -2.908513    -1.915123
 H     2.725955    -3.104974    -2.794115
 C     4.870676    -2.355850     0.354436
 H     5.480484    -2.163481     1.238905
 C     4.298202    -3.824766    -1.487180
 H     4.466143    -4.763580    -2.017774
 C     5.047505    -3.539250    -0.351466
 F     5.958578    -4.418484     0.065738
