  90
scf done:    -2455.873539
 C     0.750121    -0.603301    -3.454441
 H     1.491195     0.062163    -3.908618
 H     1.037035    -1.658831    -3.460260
 C    -0.626491    -0.252188    -3.497530
 H    -0.929483     0.679506    -3.985989
 H    -1.383585    -1.039901    -3.556569
 H    -0.218759    -1.491926    -1.280578
Rh     0.125776     0.042088    -1.497053
 O     2.173166    -1.965790     0.351643
 C     3.547296    -0.287091    -1.158498
 C     2.265999     0.539085     1.338263
 O    -1.282416    -0.007801     1.460535
 C    -2.469137     1.989301    -0.141805
 C    -3.170735    -0.773596    -0.436815
 P    -1.671552     0.280938    -0.131752
 P     1.966316    -0.426598    -0.218323
 C     0.528597     1.886164    -1.834255
 O     0.752572     2.974124    -2.117204
 C     1.087574    -2.719663     0.898620
 H     0.164750    -2.118384     0.823128
 C     1.386556    -3.005313     2.357542
 H     1.515271    -2.071685     2.924071
 H     2.312135    -3.593848     2.454582
 H     0.563697    -3.575265     2.814423
 C     0.929527    -3.975189     0.069616
 H     0.700612    -3.710038    -0.972091
 H     1.860359    -4.563572     0.088236
 H     0.106237    -4.594917     0.453129
 H     3.468853     0.662444    -1.709798
 H     3.453913    -1.084364    -1.915142
 C     4.857355    -0.370735    -0.429033
 C     5.178146    -1.458267     0.396400
 H     4.446153    -2.257191     0.522303
 C     5.805654     0.649676    -0.578915
 H     5.579003     1.497105    -1.232233
 C     6.402009    -1.509421     1.059674
 H     6.631287    -2.363920     1.701486
 C     7.031638     0.597731     0.082286
 H     7.754943     1.405848    -0.052103
 C     7.333304    -0.482417     0.908878
 H     8.292248    -0.526082     1.430643
 H     3.246717     0.236523     1.736390
 H     1.481287     0.178939     2.020387
 C     2.155143     2.018900     1.151150
 C     0.920191     2.657505     1.319206
 H     0.064075     2.054402     1.623092
 C     3.257021     2.790987     0.764583
 H     4.231366     2.311076     0.647774
 C     0.785500     4.025518     1.100452
 H    -0.187255     4.505908     1.235768
 C     3.122815     4.159462     0.538742
 H     3.994080     4.745466     0.235693
 C     1.886059     4.781821     0.701153
 H     1.781494     5.854074     0.520288
 C    -2.144311    -0.031892     2.596702
 H    -3.196469    -0.058635     2.259357
 C    -1.917986     1.212981     3.437124
 H    -2.092037     2.134728     2.865408
 H    -0.881234     1.239058     3.805086
 H    -2.591603     1.219663     4.307461
 C    -1.833707    -1.290566     3.383422
 H    -1.942959    -2.182225     2.752613
 H    -0.797276    -1.255435     3.750908
 H    -2.504910    -1.385110     4.250471
 H    -2.115339     2.431928    -1.083272
 H    -1.971251     2.547298     0.664323
 C    -3.960891     2.096400    -0.061195
 C    -4.641662     2.192265     1.159377
 H    -4.075804     2.239635     2.091814
 C    -4.721697     2.071182    -1.238659
 H    -4.208564     2.014247    -2.203132
 C    -6.033979     2.240554     1.203153
 H    -6.541829     2.318829     2.167592
 C    -6.112495     2.117573    -1.198958
 H    -6.682111     2.095522    -2.131151
 C    -6.776371     2.197169     0.024622
 H    -7.867553     2.234318     0.058625
 H    -3.462990    -0.488972    -1.460361
 H    -3.985829    -0.431876     0.218567
 C    -3.008327    -2.258342    -0.329016
 C    -3.494569    -2.940668     0.792988
 H    -3.994488    -2.377848     1.585633
 C    -2.419496    -3.009089    -1.354975
 H    -2.050580    -2.498484    -2.245291
 C    -3.377114    -4.325088     0.902166
 H    -3.767179    -4.834384     1.786873
 C    -2.309827    -4.393370    -1.254224
 H    -1.850287    -4.958107    -2.068861
 C    -2.780388    -5.057595    -0.122361
 H    -2.693173    -6.143901    -0.044585
