  60
scf done:    -1911.695344
 C    -3.504717    -1.811170    -0.467080
 H    -4.076130    -1.941189     0.457043
 H    -4.016932    -1.228488    -1.237134
 C    -2.557812    -2.794444    -0.841282
 H    -2.417029    -3.670489    -0.200469
 H    -2.343845    -2.969401    -1.898657
 H    -1.641240    -0.558520    -1.641755
Rh    -1.515253    -1.024940    -0.133065
 O    -0.851220     2.009714    -1.014385
 O    -3.196548     1.916590    -0.248285
 O    -1.471639     1.991401     1.475939
 O     1.755641    -0.235028     0.205883
 O     1.520156    -2.521005    -0.635687
 O     1.022370    -0.504589    -2.134667
 P     0.674041    -1.104413    -0.673511
 P    -1.757573     1.205852     0.051869
 C    -1.438285    -1.673775     1.674527
 O    -1.416339    -2.109361     2.735324
 C    -0.758429     3.429284    -1.085555
 H    -0.714869     3.668209    -2.159999
 H    -1.669888     3.889444    -0.673458
 C     0.482991     3.934512    -0.375920
 H     0.558086     5.021534    -0.557281
 H     0.343931     3.817686     0.711692
 C     1.764430     3.235092    -0.809593
 H     1.924478     3.406728    -1.889111
 H     1.630469     2.148536    -0.691290
 C     2.986120     3.684583    -0.025584
 H     3.169916     4.765826    -0.135654
 H     2.861788     3.481782     1.051087
 H     3.894161     3.156240    -0.354310
 C    -4.288409     1.628243     0.597416
 H    -4.363706     0.545464     0.794314
 H    -4.191539     2.161347     1.556693
 H    -5.200897     1.962154     0.085386
 C    -0.399890     1.613922     2.304841
 H    -0.473593     0.558132     2.611944
 H     0.570899     1.763772     1.804601
 H    -0.441716     2.245198     3.203013
 C     2.218739    -0.688290     1.468897
 H     2.148915     0.167655     2.160310
 H     1.561018    -1.483397     1.860485
 C     3.649473    -1.176287     1.377999
 H     3.953844    -1.538672     2.376125
 H     3.673850    -2.046914     0.702195
 C     4.618626    -0.107216     0.892884
 H     4.594614     0.749787     1.589827
 H     4.255350     0.283538    -0.071653
 C     6.043673    -0.613213     0.744934
 H     6.440310    -0.986392     1.703086
 H     6.097265    -1.444277     0.023235
 H     6.721276     0.178576     0.391150
 C     0.892239    -3.753485    -0.911816
 H    -0.096306    -3.810217    -0.430279
 H     0.763276    -3.902359    -1.996624
 H     1.540302    -4.548472    -0.517966
 C     2.355642    -0.355301    -2.584011
 H     2.800031     0.565693    -2.177825
 H     2.976868    -1.216836    -2.293584
 H     2.320690    -0.287479    -3.679491
