 102
scf done:    -2613.007128
 C     0.114073    -0.422493     3.585558
 H     0.574369    -1.280962     4.084055
 H     0.603325     0.527938     3.802859
 C    -1.259759    -0.461228     3.257055
 H    -1.853612    -1.345351     3.507868
 H    -1.834954     0.468554     3.212036
 H    -0.158987     0.841045     1.248460
Rh    -0.087883    -0.743426     1.441711
 O     2.805047     1.022127     1.359900
 C     3.246365    -1.523051     1.030760
 C     2.184701     0.075122    -1.207072
 O    -1.650497    -1.783130    -1.470289
 C    -3.397811    -1.355467     0.610111
 C    -2.267703     0.689539    -1.105773
 P    -1.789440    -0.795347    -0.126016
 P     1.987502    -0.221276     0.643398
 C     0.156320    -2.608799     1.681442
 O     0.354573    -3.727935     1.856960
 C     2.403556     2.395007     1.374862
 H     1.724152     2.580628     0.528162
 C     3.659149     3.222221     1.189491
 H     4.173697     2.948484     0.259604
 H     4.347283     3.057309     2.033437
 H     3.410404     4.293040     1.150612
 C     1.675974     2.732620     2.661238
 H     0.723287     2.192361     2.725969
 H     2.295514     2.468505     3.531923
 H     1.464050     3.811716     2.700312
 H     3.246473    -1.535445     2.132474
 H     2.790532    -2.470973     0.713965
 C     4.631251    -1.351282     0.487880
 C     5.471600    -0.378331     1.045297
 H     5.091451     0.226595     1.869486
 C     5.104894    -2.140405    -0.582257
 C     4.274307    -3.236198    -1.189990
 H     3.334600    -2.862891    -1.626460
 H     3.995278    -3.996051    -0.442077
 H     4.827288    -3.745822    -1.990588
 C     6.749675    -0.154841     0.545212
 H     7.381689     0.617416     0.989756
 C     6.394976    -1.901255    -1.072414
 H     6.763660    -2.509054    -1.903219
 C     7.213218    -0.916062    -0.525791
 H     8.214066    -0.750716    -0.931626
 H     2.671754    -0.837957    -1.580040
 H     1.161401     0.068307    -1.604047
 C     2.951985     1.273724    -1.686515
 C     4.342707     1.201117    -1.824256
 H     4.852992     0.269568    -1.578128
 C     2.293136     2.473353    -2.030700
 C     0.797996     2.596147    -1.967091
 H     0.387723     2.262980    -1.001011
 H     0.316935     1.984024    -2.748593
 H     0.477890     3.635479    -2.121831
 C     5.087241     2.290843    -2.265789
 H     6.172195     2.201864    -2.356534
 C     3.056554     3.561767    -2.466604
 H     2.544616     4.492660    -2.725802
 C     4.442136     3.483159    -2.582534
 H     5.012459     4.350053    -2.924467
 C    -1.099207    -3.095675    -1.375854
 H    -1.207613    -3.464944    -0.340071
 C     0.374103    -3.063911    -1.728796
 H     0.905012    -2.401357    -1.034455
 H     0.512935    -2.682904    -2.752327
 H     0.816104    -4.069119    -1.661003
 C    -1.891525    -4.004658    -2.295436
 H    -2.938314    -4.091499    -1.972320
 H    -1.876430    -3.609557    -3.322676
 H    -1.454605    -5.014145    -2.304571
 H    -3.223586    -2.422826     0.834965
 H    -3.431067    -0.856221     1.586181
 C    -4.676381    -1.162763    -0.154649
 C    -4.851067    -1.777221    -1.401648
 H    -4.025498    -2.352033    -1.820343
 C    -5.729123    -0.386713     0.378108
 C    -5.611229     0.301587     1.706578
 H    -4.779194     1.022248     1.715362
 H    -5.435133    -0.416487     2.523712
 H    -6.530439     0.854704     1.941343
 C    -6.039168    -1.653134    -2.117262
 H    -6.146221    -2.147033    -3.085931
 C    -6.913789    -0.267786    -0.357975
 H    -7.728095     0.333190     0.055871
 C    -7.080457    -0.893930    -1.590432
 H    -8.020058    -0.784680    -2.137243
 H    -1.327944     1.071211    -1.531846
 H    -2.850146     0.283277    -1.942282
 C    -3.025056     1.786349    -0.401934
 C    -2.573930     2.303073     0.819060
 H    -1.667686     1.884943     1.261116
 C    -4.187128     2.335559    -0.986900
 C    -4.700418     1.866391    -2.316284
 H    -4.953676     0.795906    -2.299486
 H    -3.953964     2.016152    -3.113022
 H    -5.607585     2.416748    -2.599881
 C    -3.255082     3.324448     1.477354
 H    -2.877457     3.702488     2.430420
 C    -4.863862     3.354618    -0.307127
 H    -5.768498     3.771906    -0.757768
 C    -4.414131     3.849489     0.914480
 H    -4.966084     4.646192     1.418996
