 108
scf done:    -2691.565973
 C     0.826802     0.051319    -3.989354
 H     1.540711     0.768623    -4.406800
 H     1.133559    -0.993688    -4.096903
 C    -0.556943     0.373485    -3.969300
 H    -0.893678     1.334834    -4.369581
 H    -1.295984    -0.428159    -4.056114
 H    -0.097987    -1.056901    -1.908958
Rh     0.231328     0.499858    -1.965637
 O     1.364916    -0.971685     0.769704
 C     3.066686    -1.424036    -1.355162
 C     3.009667     1.198346     0.090897
 O    -1.900918     1.965343     0.288744
 C    -3.224806     0.511085    -1.624376
 C    -1.899363    -0.562918     0.762112
 P    -1.656692     0.602738    -0.645823
 P     1.910719    -0.169326    -0.573539
 C     0.756973     2.317525    -2.169976
 O     1.143263     3.381688    -2.367322
 C     2.145233    -1.793171     1.631724
 H     2.385309    -2.739955     1.113026
 H     3.090677    -1.294152     1.886777
 C     1.340896    -2.085970     2.879770
 H     2.026395    -2.485692     3.646760
 H     0.973091    -1.123607     3.274629
 C     0.184767    -3.049120     2.647150
 H     0.590168    -4.056265     2.444896
 H    -0.349880    -2.759234     1.731368
 C    -0.801628    -3.110917     3.799948
 H    -0.316797    -3.428539     4.737663
 H    -1.253440    -2.122035     3.983044
 H    -1.621706    -3.812929     3.586847
 H     2.699323    -2.399342    -1.002001
 H     2.814991    -1.370692    -2.422478
 C     4.541704    -1.287495    -1.140305
 C     5.197538    -2.047945    -0.166396
 H     4.621985    -2.764326     0.423854
 C     5.289457    -0.379019    -1.921729
 C     4.648994     0.391185    -3.042165
 H     3.708240     0.880952    -2.746716
 H     4.393297    -0.278363    -3.880720
 H     5.326756     1.163875    -3.429707
 C     6.562557    -1.907478     0.067863
 H     7.049611    -2.512478     0.836004
 C     6.656923    -0.237175    -1.663078
 H     7.235475     0.473188    -2.260019
 C     7.294981    -0.986049    -0.675849
 H     8.364682    -0.854987    -0.496949
 H     3.887680     1.243759    -0.568115
 H     2.427801     2.114200    -0.081571
 C     3.442130     1.109129     1.521092
 C     4.744529     0.705225     1.835395
 H     5.444654     0.493728     1.024066
 C     2.538249     1.414184     2.560344
 C     1.163394     1.934724     2.262765
 H     0.562527     2.024781     3.177916
 H     0.614233     1.290871     1.562066
 H     1.215082     2.935979     1.802996
 C     5.149040     0.546156     3.157794
 H     6.167415     0.218764     3.379895
 C     2.961175     1.246034     3.882779
 H     2.261028     1.470397     4.692378
 C     4.247107     0.803865     4.187624
 H     4.546744     0.675460     5.230521
 C    -1.529412     3.248172    -0.168207
 H    -0.434250     3.363827    -0.090239
 H    -1.794550     3.380959    -1.232865
 C    -2.227892     4.295435     0.674328
 H    -1.936958     5.288086     0.288589
 H    -3.318222     4.215017     0.518461
 C    -1.916186     4.200115     2.160857
 H    -0.829822     4.327183     2.310170
 H    -2.150407     3.179300     2.503958
 C    -2.674015     5.219064     2.995323
 H    -2.438675     6.250009     2.684792
 H    -3.763365     5.086869     2.893141
 H    -2.428781     5.130429     4.064498
 H    -3.188803     1.419516    -2.250844
 H    -3.055821    -0.323167    -2.317880
 C    -4.541159     0.393368    -0.911058
 C    -4.955714     1.406119    -0.035589
 H    -4.290672     2.252016     0.138502
 C    -5.393464    -0.710293    -1.133257
 C    -5.027531    -1.814275    -2.081670
 H    -4.091440    -2.311497    -1.786223
 H    -4.891685    -1.436746    -3.108261
 H    -5.814118    -2.580120    -2.109673
 C    -6.180542     1.344022     0.623702
 H    -6.476432     2.148685     1.301072
 C    -6.618184    -0.758398    -0.457412
 H    -7.276043    -1.615018    -0.627770
 C    -7.017822     0.251724     0.413634
 H    -7.981771     0.184909     0.923730
 H    -0.898745    -0.642434     1.217993
 H    -2.544362    -0.011649     1.456998
 C    -2.451741    -1.931103     0.473903
 C    -1.803080    -2.781225    -0.431210
 H    -0.908430    -2.417568    -0.940363
 C    -3.588662    -2.406342     1.162904
 C    -4.299254    -1.571357     2.186992
 H    -4.658213    -0.622258     1.762324
 H    -3.637008    -1.326936     3.033471
 H    -5.170614    -2.105834     2.588500
 C    -2.267408    -4.069310    -0.684838
 H    -1.740622    -4.707102    -1.398558
 C    -4.043777    -3.702132     0.892473
 H    -4.928179    -4.066641     1.422183
 C    -3.400344    -4.532297    -0.021958
 H    -3.781480    -5.539005    -0.209588
