  62
scf done:    -1689.496862
 C    -1.446691    -2.557642    -1.640775
 H    -2.019296    -3.279231    -1.049780
 H    -2.040893    -2.021866    -2.386468
 C    -0.063995    -2.784137    -1.874656
 H     0.411721    -3.680237    -1.464002
 H     0.391307    -2.424951    -2.802430
 H    -0.316336    -0.260158    -1.704521
Rh    -0.290650    -1.205168    -0.420487
 O    -2.705801     1.246966    -0.542267
 C    -3.333007    -0.660609     1.169721
 C    -1.368367     1.364325     1.785442
 O     1.618270     1.321240     0.472177
 C     2.996322    -1.024913     0.850260
 C     2.603342     0.058307    -1.809862
 P     1.730289    -0.194438    -0.203270
 P    -1.881971     0.205683     0.451417
 C    -0.195690    -2.342477     1.102325
 O    -0.112338    -3.021423     2.026295
 C    -2.195575     1.742078    -1.773709
 H    -1.783448     0.889632    -2.345067
 C    -1.080378     2.743787    -1.537434
 H    -0.232752     2.269818    -1.020187
 H    -1.441584     3.584322    -0.923505
 H    -0.713238     3.145660    -2.494447
 C    -3.375282     2.328507    -2.520465
 H    -4.157724     1.568376    -2.657718
 H    -3.808169     3.170131    -1.957673
 H    -3.064231     2.694083    -3.510416
 H    -2.930308    -1.336955     1.942729
 C    -4.452700     0.215335     1.705727
 H    -4.791013     0.924395     0.936476
 H    -4.134113     0.796531     2.584552
 H    -3.688664    -1.315810     0.358216
 H    -5.315481    -0.395828     2.012519
 H    -2.231818     1.998483     2.042477
 C    -0.786785     0.665626     3.002309
 H     0.077678     0.047047     2.718053
 H    -1.519900     0.011053     3.499360
 H    -0.604507     2.006096     1.322389
 H    -0.440696     1.397338     3.748247
 C     2.692697     2.178333     0.848340
 H     3.656488     1.704344     0.593795
 C     2.637760     2.384389     2.350043
 H     2.730872     1.424461     2.878188
 H     1.676702     2.838316     2.635973
 H     3.449588     3.046763     2.686696
 C     2.562434     3.473448     0.070458
 H     2.590094     3.282849    -1.012387
 H     1.602705     3.959838     0.302497
 H     3.376342     4.169676     0.323406
 H     2.536479    -1.100502     1.849372
 C     3.369147    -2.405798     0.329903
 H     3.901657    -2.348690    -0.631980
 H     2.472305    -3.023406     0.172488
 H     3.892176    -0.391470     0.957500
 H     4.024887    -2.930026     1.041032
 H     1.937356     0.728224    -2.377883
 C     4.046825     0.535685    -1.853864
 H     4.712513    -0.092990    -1.242613
 H     4.155860     1.573801    -1.509664
 H     2.501810    -0.923745    -2.301604
 H     4.428716     0.498822    -2.886124
