  72
scf done:    -1696.227098
 C     0.243098    -2.253880    -2.338704
 H    -0.327558    -3.171949    -2.165084
 H    -0.076722    -1.692532    -3.222126
 C     1.601551    -2.182018    -1.929870
 H     2.064846    -3.045398    -1.441346
 H     2.303516    -1.573011    -2.505298
 H     0.638746     0.181419    -1.649134
Rh     0.384844    -0.997879    -0.596230
 C    -2.433715     0.247870    -2.241897
 C    -3.080573    -1.151385     0.226382
 C    -1.950076     1.497068     0.406478
 C     1.922519    -0.212105     2.505949
 C     3.621468     0.004296     0.184934
 C     1.681035     2.090520     0.789969
 P     1.860903     0.249064     0.690743
 P    -1.762558    -0.092073    -0.523257
 C     0.217718    -2.432153     0.629388
 O     0.187896    -3.324875     1.355873
 H    -2.040712    -0.617741    -2.800962
 C    -3.949354     0.262064    -2.410711
 H    -4.198669     0.437456    -3.470086
 H    -4.411532    -0.693114    -2.124746
 H    -4.432762     1.059438    -1.827241
 C    -1.789510     1.499338    -2.827088
 H    -0.693898     1.460631    -2.736020
 H    -2.036188     1.590116    -3.896823
 H    -2.148081     2.414817    -2.329467
 H    -4.068505    -0.700478     0.039622
 H    -3.053899    -2.102252    -0.333206
 C    -2.918290    -1.417811     1.716860
 H    -2.943738    -0.462585     2.268834
 H    -1.927745    -1.854703     1.911384
 C    -3.993157    -2.345364     2.263259
 H    -5.001291    -1.926871     2.112006
 H    -3.962839    -3.325113     1.760679
 H    -3.862173    -2.520751     3.341837
 H    -1.529463     1.277703     1.402354
 H    -1.235275     2.195747    -0.055644
 C    -3.315113     2.156128     0.552619
 H    -4.048586     1.428121     0.938112
 H    -3.688532     2.466980    -0.436135
 C    -3.268365     3.365065     1.476022
 H    -2.935128     3.080074     2.486996
 H    -2.564005     4.124927     1.100459
 H    -4.255078     3.843342     1.571886
 H     2.151365    -1.292325     2.464677
 C     2.993951     0.481786     3.338875
 H     2.972009     0.099929     4.372493
 H     4.009627     0.314967     2.953638
 H     2.824285     1.568635     3.394044
 C     0.548293    -0.049672     3.146242
 H    -0.239286    -0.510225     2.535066
 H     0.528686    -0.517578     4.143077
 H     0.293727     1.014214     3.281887
 H     4.301618     0.455678     0.925980
 H     3.765754    -1.088836     0.232460
 C     3.966220     0.508499    -1.212783
 H     4.068729     1.605876    -1.189321
 H     3.126679     0.293850    -1.893276
 C     5.246473    -0.106276    -1.756270
 H     6.102786     0.088734    -1.090391
 H     5.146644    -1.199068    -1.855357
 H     5.497638     0.296993    -2.749253
 H     0.835634     2.263252     1.477644
 H     2.575450     2.505591     1.285789
 C     1.412431     2.823545    -0.518115
 H     0.631261     2.284299    -1.075886
 H     2.303725     2.782608    -1.162522
 C     1.003628     4.272039    -0.301118
 H     0.077827     4.339744     0.294363
 H     1.780668     4.835945     0.239714
 H     0.822739     4.786839    -1.257109
