  54
scf done:    -2107.172645
 C     1.331666    -3.697180     0.347333
 H     1.215604    -4.260144    -0.583162
 H     2.368876    -3.503670     0.630594
 C     0.321887    -3.750412     1.333677
 H    -0.573670    -4.356299     1.167723
 H     0.590386    -3.616105     2.384538
 H     1.228846    -1.370400     1.458263
Rh     0.243750    -1.830317     0.293999
 C     2.079344     1.125109    -0.262744
 O     3.178507    -1.237070    -0.999271
 O     1.376690    -0.097673    -2.437969
 C    -2.317215     0.568278     0.128082
 O    -2.219211    -0.676293     2.404445
 O    -0.289407     0.933695     1.895907
 P    -1.137651    -0.298235     1.216897
 P     1.691974    -0.547754    -0.873207
 C    -1.031009    -2.463745    -0.989618
 O    -1.826550    -2.863978    -1.710677
 C     1.838306     2.279658    -1.013828
 H     1.451793     2.185215    -2.029698
 C     2.585975     1.247827     1.036977
 H     2.753150     0.351442     1.638910
 C     2.088976     3.540239    -0.476258
 H     1.900838     4.453706    -1.043333
 C     2.857364     2.498353     1.578347
 H     3.254152     2.613028     2.588587
 C     2.595999     3.630692     0.813594
 F     2.835948     4.832312     1.334440
 C     4.251348    -0.560993    -1.622538
 H     3.975348    -0.212054    -2.630639
 H     4.578343     0.307384    -1.026972
 H     5.082295    -1.274876    -1.702911
 C     0.827632    -1.037047    -3.336215
 H     1.260559    -2.041008    -3.197760
 H    -0.265833    -1.104858    -3.220500
 H     1.055666    -0.690924    -4.354082
 C    -3.647491     0.812766     0.487228
 H    -4.011353     0.456708     1.452394
 C    -1.852669     1.010775    -1.117197
 H    -0.821610     0.807204    -1.416328
 C    -4.500292     1.492743    -0.377736
 H    -5.542946     1.687819    -0.120079
 C    -2.692221     1.699866    -1.986147
 H    -2.346795     2.052919    -2.959362
 C    -4.008657     1.930282    -1.602102
 F    -4.819890     2.581658    -2.430992
 C    -1.818892    -1.537482     3.448626
 H    -1.315176    -2.430852     3.047309
 H    -1.133605    -1.026566     4.145584
 H    -2.724359    -1.837708     3.993316
 C    -0.909005     2.107753     2.368290
 H    -1.361531     2.683314     1.543781
 H    -1.688674     1.882155     3.114453
 H    -0.124907     2.718593     2.836900
