 106
scf done:    -2839.447002
 C    -0.613702    -3.146495    -2.065065
 H    -1.201327    -3.954946    -1.616910
 H    -1.062423    -2.717629    -2.965952
 C     0.800442    -3.160155    -1.919939
 H     1.268440    -3.978957    -1.363798
 H     1.437494    -2.739157    -2.702965
 H     0.102637    -0.760850    -1.995591
Rh    -0.013678    -1.621004    -0.669586
 C    -2.128471     1.207661    -1.291401
 C    -3.436322    -0.984875     0.074449
 C    -1.553836     0.602861     1.501028
 C     2.128966     0.254266     1.644759
 C     3.412194    -0.774216    -0.710867
 C     1.581073     1.416493    -0.958150
 P     1.769521    -0.210284    -0.128203
 P    -1.790724    -0.206113    -0.127844
 C    -0.224816    -2.787222     0.821967
 O    -0.403357    -3.552498     1.661681
 H    -1.202738     1.810610    -1.237203
 C    -3.329190     2.080988    -0.925510
 H    -3.271299     2.433182     0.115331
 H    -4.245083     1.469076    -0.991318
 C    -3.450149     3.265930    -1.880330
 H    -4.316098     3.888509    -1.601162
 H    -2.554651     3.906932    -1.777393
 C    -3.569473     2.799074    -3.325946
 H    -3.615408     3.662933    -4.009266
 H    -4.522590     2.253093    -3.447695
 C    -2.411265     1.883003    -3.702456
 H    -1.474388     2.466985    -3.697673
 H    -2.537741     1.504064    -4.729771
 C    -2.266988     0.714059    -2.732663
 H    -3.154502     0.058502    -2.803932
 H    -1.395534     0.095994    -2.995332
 C    -4.426769    -0.475511     0.931098
 H    -4.211791     0.398022     1.551123
 C    -3.739695    -2.114675    -0.687044
 H    -2.964255    -2.533026    -1.332120
 C    -5.673406    -1.074365     1.013861
 H    -6.446286    -0.690676     1.682642
 C    -4.993803    -2.721569    -0.622747
 H    -5.190354    -3.603434    -1.232810
 C    -5.970808    -2.201619     0.232850
 O    -7.207380    -2.715458     0.378112
 C    -7.559642    -3.846961    -0.367229
 H    -6.915483    -4.712045    -0.130182
 H    -8.595025    -4.091610    -0.098133
 H    -7.509195    -3.655633    -1.453753
 C    -1.550880    -0.215830     2.646187
 H    -1.814053    -1.272787     2.556495
 C    -1.222685     1.947387     1.666085
 H    -1.216001     2.619792     0.808284
 C    -1.205936     0.284278     3.888366
 H    -1.196615    -0.353999     4.773783
 C    -0.855827     2.465574     2.912613
 H    -0.587567     3.519593     2.991412
 C    -0.830993     1.629703     4.030698
 O    -0.451055     2.012666     5.266053
 C    -0.008840     3.327010     5.456183
 H    -0.800792     4.063777     5.233607
 H     0.270721     3.416061     6.513462
 H     0.874295     3.555040     4.832946
 H     1.244311     0.844027     1.946438
 C     3.392693     1.093786     1.839964
 H     3.387551     1.982532     1.190933
 H     4.266151     0.495410     1.529466
 C     3.562149     1.501170     3.300728
 H     4.474387     2.108742     3.419301
 H     2.714140     2.144998     3.600535
 C     3.610101     0.278269     4.208075
 H     3.698233     0.581323     5.264299
 H     4.518765    -0.305349     3.973398
 C     2.379273    -0.597236     4.008088
 H     1.488714    -0.048902     4.360182
 H     2.447906    -1.507768     4.625306
 C     2.176969    -0.980626     2.544498
 H     3.004569    -1.635961     2.216748
 H     1.251714    -1.562181     2.435499
 C     4.396007     0.090882    -1.215636
 H     4.178844     1.156148    -1.323930
 C     3.725690    -2.129931    -0.591596
 H     2.959091    -2.817296    -0.226449
 C     5.643898    -0.386476    -1.585346
 H     6.411503     0.278471    -1.985969
 C     4.981542    -2.622454    -0.944006
 H     5.185596    -3.687834    -0.835217
 C     5.950568    -1.748160    -1.448686
 O     7.187604    -2.121320    -1.830909
 C     7.549404    -3.469079    -1.721959
 H     6.906179    -4.119001    -2.341254
 H     8.583303    -3.547870    -2.081398
 H     7.507546    -3.823154    -0.676623
 C     1.562269     1.443691    -2.365513
 H     1.779495     0.528301    -2.921459
 C     1.297645     2.604310    -0.286058
 H     1.309406     2.635307     0.803314
 C     1.244769     2.595843    -3.060516
 H     1.222961     2.612814    -4.151723
 C     0.952153     3.773556    -0.972799
 H     0.716122     4.673282    -0.403753
 C     0.907843     3.770063    -2.368107
 O     0.546007     4.823849    -3.126299
 C     0.143959     6.003734    -2.489536
 H     0.956190     6.441188    -1.882474
 H    -0.127647     6.712991    -3.281467
 H    -0.735097     5.838762    -1.841197
