  82
scf done:    -2151.166214
 C     1.746528     1.280848     2.658401
 H     1.711495     0.687923     3.577923
 H     2.721834     1.288170     2.162172
 C     0.871600     2.380443     2.503087
 H     0.166792     2.625938     3.303404
 H     1.184174     3.236971     1.899186
 H     1.141568     1.378589     0.191749
Rh     0.181338     0.731177     1.266686
 C     2.982581    -0.820241    -0.133939
 C     1.808506    -2.370826     2.001040
 C     0.592929    -2.345791    -0.682295
 C    -2.637930     0.270901    -0.805851
 C    -2.725286     2.658141     0.781507
 C    -0.924175     2.452738    -1.657713
 P    -1.501715     1.548196    -0.124417
 P     1.332011    -1.201720     0.604769
 C    -1.098172     0.074844     2.508741
 O    -1.945409    -0.236094     3.225940
 C     4.187769    -1.430554     0.250417
 H     4.205534    -2.183298     1.038336
 C     3.060601     0.155126    -1.135417
 H     2.154394     0.688129    -1.428314
 C     5.397568    -1.093683    -0.341754
 H     6.330017    -1.567073    -0.028528
 C     4.261593     0.495113    -1.753000
 H     4.260614     1.262721    -2.527293
 C     5.448163    -0.131970    -1.356694
 O     6.662356     0.130054    -1.878841
 C     6.767369     1.092276    -2.889684
 H     6.440217     2.089106    -2.544558
 H     7.827984     1.144243    -3.166704
 H     6.179090     0.816730    -3.782988
 H     2.705822    -1.876873     2.411876
 C     0.783829    -2.416095     3.127751
 H     1.131027    -3.101963     3.917425
 H     0.640602    -1.426602     3.578377
 H    -0.199113    -2.773670     2.786574
 C     2.182992    -3.784628     1.559870
 H     2.884924    -3.806984     0.714562
 H     2.650857    -4.327158     2.397502
 H     1.291260    -4.357610     1.263861
 H     1.280617    -3.200438    -0.788560
 C    -0.765221    -2.837892    -0.197548
 H    -1.239615    -3.472137    -0.963351
 H    -0.690543    -3.429496     0.726389
 H    -1.436638    -1.990132     0.000152
 C     0.485632    -1.647125    -2.029737
 H     1.470841    -1.478895    -2.485710
 H    -0.115494    -2.254395    -2.724948
 H    -0.016978    -0.674637    -1.921268
 C    -2.635844    -0.161546    -2.140435
 H    -1.987737     0.315053    -2.877054
 C    -3.493679    -0.396475     0.080308
 H    -3.519158    -0.114645     1.135096
 C    -3.440691    -1.209735    -2.565886
 H    -3.428434    -1.545166    -3.604647
 C    -4.313927    -1.443933    -0.331099
 H    -4.957924    -1.930413     0.401716
 C    -4.288620    -1.864714    -1.665955
 O    -5.029603    -2.874569    -2.162619
 C    -5.881821    -3.572378    -1.298589
 H    -6.652753    -2.914140    -0.860242
 H    -6.376949    -4.345043    -1.900290
 H    -5.325697    -4.060593    -0.478735
 H    -2.896485     2.061339     1.694735
 C    -2.069303     3.962583     1.219399
 H    -2.691388     4.461538     1.979382
 H    -1.074501     3.788983     1.649477
 H    -1.966997     4.661529     0.375143
 C    -4.080227     2.909678     0.128562
 H    -4.554517     1.986461    -0.231358
 H    -4.759402     3.369749     0.865177
 H    -4.005550     3.603868    -0.719158
 H    -0.467556     1.623046    -2.228380
 C    -2.022539     3.088755    -2.505254
 H    -1.623520     3.353941    -3.497972
 H    -2.891402     2.433393    -2.654462
 H    -2.379182     4.021300    -2.043956
 C     0.189641     3.458554    -1.383081
 H     0.989321     3.015255    -0.773906
 H     0.621452     3.801732    -2.337000
 H    -0.185515     4.345929    -0.853725
