  86
scf done:    -1929.504985
 C     1.381358     0.210863     3.079465
 H     1.634208    -0.723827     3.588432
 H     2.249522     0.832967     2.842308
 C     0.134276     0.825084     3.334054
 H    -0.557284     0.351329     4.036045
 H     0.042144     1.913510     3.286470
 H     0.698693     1.324634     0.931756
Rh     0.101948    -0.076803     1.362140
 C     2.616272     0.656494    -0.954536
 C     3.224954    -1.587834     0.894194
 C     1.566801    -1.992727    -1.515777
 C    -2.570227    -0.254211    -1.119003
 C    -3.315771     1.212313     1.274030
 C    -1.247941     2.360331    -0.680778
 P    -1.793482     0.806048     0.230202
 P     1.821542    -0.811948    -0.086285
 C    -0.666435    -1.705955     1.973846
 O    -1.147659    -2.658598     2.404864
 H     1.715899     1.202025    -1.293822
 C     3.494795     0.433717    -2.189868
 H     3.004335    -0.222351    -2.922880
 H     4.432758    -0.069223    -1.906520
 C     3.833256     1.768890    -2.851398
 H     4.469221     1.599343    -3.735663
 H     2.900824     2.231185    -3.224211
 C     4.515150     2.724697    -1.879916
 H     4.711204     3.694197    -2.366258
 H     5.502223     2.311827    -1.602594
 C     3.683587     2.915792    -0.617442
 H     2.746589     3.445161    -0.869750
 H     4.217000     3.557392     0.102715
 C     3.332298     1.581480     0.032125
 H     4.259268     1.095351     0.385897
 H     2.694258     1.745543     0.913360
 H     3.512748    -0.742100     1.540822
 C     2.759403    -2.710352     1.819220
 H     3.509522    -2.877185     2.608696
 H     1.803857    -2.471848     2.301982
 H     2.639498    -3.661789     1.282293
 C     4.451941    -2.025960     0.102991
 H     4.934583    -1.195233    -0.427364
 H     5.202093    -2.455804     0.786945
 H     4.208877    -2.805264    -0.636521
 H     2.555628    -2.122599    -1.987032
 C     1.067443    -3.358132    -1.056323
 H     0.741118    -3.953965    -1.924086
 H     1.844968    -3.933082    -0.537327
 H     0.208899    -3.267627    -0.372727
 C     0.614509    -1.392296    -2.541212
 H     0.917446    -0.392166    -2.882315
 H     0.548435    -2.042628    -3.428361
 H    -0.390673    -1.304318    -2.115292
 H    -1.870718    -0.124249    -1.964871
 C    -3.972050     0.104308    -1.624213
 H    -4.023387     1.148508    -1.957177
 H    -4.696723    -0.000901    -0.799059
 C    -4.405902    -0.812984    -2.766195
 H    -5.412607    -0.525140    -3.110788
 H    -3.728975    -0.665110    -3.627567
 C    -4.380257    -2.276972    -2.349796
 H    -4.667243    -2.926429    -3.192708
 H    -5.134613    -2.440696    -1.558885
 C    -3.005323    -2.660062    -1.820137
 H    -2.274670    -2.617760    -2.648149
 H    -3.001504    -3.701341    -1.459094
 C    -2.543689    -1.727851    -0.705590
 H    -3.189285    -1.866498     0.180932
 H    -1.528849    -1.993532    -0.381864
 H    -3.879947     0.264047     1.203712
 C    -2.990517     1.423310     2.745411
 H    -3.923249     1.569341     3.314499
 H    -2.455869     0.564034     3.163973
 H    -2.360845     2.312224     2.899839
 C    -4.220668     2.337989     0.777476
 H    -4.532574     2.225676    -0.266292
 H    -5.135341     2.368061     1.392121
 H    -3.734669     3.318505     0.883089
 H    -0.293842     1.988823    -1.093966
 C    -2.074409     2.877485    -1.851977
 H    -1.536496     3.713613    -2.328936
 H    -2.229507     2.112645    -2.625785
 H    -3.056326     3.261836    -1.543161
 C    -0.900237     3.479591     0.296279
 H    -0.286448     3.102607     1.126667
 H    -0.326934     4.266475    -0.220281
 H    -1.800228     3.953192     0.715195
