  98
scf done:    -2236.547335
 C    -0.505624     3.144943    -1.157441
 H     0.122110     3.925081    -0.714458
 H    -0.325613     2.987410    -2.225023
 C    -1.800817     2.909541    -0.619587
 H    -2.143256     3.511412     0.228372
 H    -2.607465     2.567468    -1.273841
 H    -0.935330     0.692971    -1.470571
Rh    -0.484423     1.296953    -0.066757
 C     1.225928    -1.349930    -1.563489
 C     2.630315     1.136796    -1.695151
 C     2.549420    -0.328566     0.799910
 C    -0.707459    -1.538506     1.976170
 C    -3.169195    -0.156986     1.864294
 C    -2.270766    -1.739695    -0.411711
 P    -1.682017    -0.494588     0.811590
 P     1.476958     0.194924    -0.603555
 C     0.078657     2.102631     1.561090
 O     0.441673     2.609114     2.528189
 C     1.468446    -2.623465    -1.035574
 C     0.671682    -1.254579    -2.849029
 C     0.618222    -3.662165    -3.047801
 C     0.379994    -2.396838    -3.587690
 C     1.160469    -3.769840    -1.769934
 H     1.882243    -2.734899    -0.032819
 H     1.349335    -4.754708    -1.335221
 H     0.377808    -4.559820    -3.622193
 H    -0.049759    -2.299664    -4.587732
 H     0.437729    -0.271314    -3.264858
 H     3.462547     0.485701    -2.010944
 H     2.051598     1.386271    -2.599222
 C     3.133661     2.413295    -1.037769
 H     2.269050     2.965635    -0.632948
 H     3.768734     2.163194    -0.169420
 C     3.915642     3.310405    -1.986504
 H     3.276162     3.566642    -2.850814
 H     4.773431     2.751481    -2.403608
 C     4.415150     4.591092    -1.332579
 H     3.553099     5.140330    -0.914594
 H     5.049915     4.331215    -0.466755
 C     5.187361     5.493405    -2.281267
 H     5.534045     6.409753    -1.779915
 H     4.564300     5.798477    -3.137452
 H     6.074209     4.980757    -2.687814
 H     2.608835     0.550315     1.463048
 H     1.959003    -1.064866     1.369860
 C     3.941361    -0.861076     0.489166
 H     3.893409    -1.618490    -0.311660
 H     4.571544    -0.047429     0.091331
 C     4.614555    -1.466920     1.713697
 H     3.981942    -2.284726     2.105724
 H     4.652283    -0.712400     2.520525
 C     6.016797    -1.993408     1.444109
 H     5.971700    -2.740470     0.631729
 H     6.644017    -1.170973     1.056640
 C     6.676433    -2.607147     2.668425
 H     7.687327    -2.979596     2.443532
 H     6.088133    -3.454753     3.055745
 H     6.766676    -1.871734     3.484110
 C    -0.383881    -2.877902     1.729477
 C    -0.186579    -0.930863     3.129749
 C     0.968866    -2.963808     3.734358
 C     0.635956    -1.634738     4.002823
 C     0.453507    -3.581172     2.597763
 H    -0.767355    -3.384421     0.843481
 H     0.701487    -4.623300     2.380199
 H     1.625865    -3.514681     4.411484
 H     1.032166    -1.138005     4.891660
 H    -0.406222     0.119042     3.338684
 H    -3.704130    -1.109409     2.025743
 H    -2.772683     0.148070     2.847203
 C    -4.092527     0.928586     1.334329
 H    -3.490170     1.827296     1.127660
 H    -4.515409     0.628684     0.361150
 C    -5.225446     1.267541     2.292205
 H    -4.799998     1.573650     3.265727
 H    -5.822143     0.360267     2.500341
 C    -6.141978     2.367599     1.774628
 H    -5.538210     3.267437     1.561980
 H    -6.563790     2.057635     0.802018
 C    -7.268371     2.719010     2.732845
 H    -7.912255     3.515545     2.329990
 H    -6.874600     3.067999     3.701142
 H    -7.908210     1.844887     2.935702
 H    -1.356802    -2.139404    -0.882067
 H    -2.754994    -2.570147     0.130247
 C    -3.187473    -1.199263    -1.499085
 H    -4.160923    -0.908688    -1.069174
 H    -2.743227    -0.276676    -1.910021
 C    -3.410488    -2.203750    -2.620726
 H    -3.859560    -3.127013    -2.210290
 H    -2.429060    -2.504264    -3.029031
 C    -4.285112    -1.672106    -3.746887
 H    -5.266817    -1.374557    -3.337323
 H    -3.835152    -0.744300    -4.142431
 C    -4.482145    -2.668607    -4.877784
 H    -5.113890    -2.257395    -5.679751
 H    -4.961797    -3.593011    -4.517289
 H    -3.517746    -2.955427    -5.327919
