  74
scf done:    -2120.660977
 C     0.090992    -3.765404    -0.983576
 H     0.109561    -4.501661    -0.173617
 H    -0.804649    -3.823208    -1.609752
 C     1.319651    -3.331235    -1.556051
 H     2.261642    -3.741706    -1.177408
 H     1.354087    -3.052477    -2.613380
 H    -0.253452    -1.389758    -1.690960
Rh     0.499455    -1.759134    -0.343765
 C    -2.105819     0.509644    -0.584705
 C    -2.908952    -2.126361     0.264795
 C    -1.601401    -0.158147     2.186099
 C     1.471625     1.381525     0.745599
 C     3.575403    -0.033844    -0.610931
 C     1.267295     1.240342    -2.150574
 P     1.716667     0.214738    -0.657323
 P    -1.516651    -0.886903     0.465593
 C     1.475584    -2.344079     1.175648
 O     2.132219    -2.751246     2.029195
 C    -2.250124     1.825942    -0.132131
 H    -2.066902     2.076714     0.912009
 C    -2.351614     0.255925    -1.944744
 H    -2.225087    -0.756428    -2.334934
 C    -2.607355     2.858897    -1.000038
 H    -2.711779     3.887045    -0.648172
 C    -2.721805     1.268905    -2.820752
 H    -2.909935     1.070320    -3.877373
 C    -2.837922     2.568022    -2.336181
 F    -3.177474     3.547652    -3.171380
 H    -2.669061    -2.511745    -0.741599
 C    -2.733121    -3.284915     1.239864
 H    -3.366563    -4.134663     0.939960
 H    -1.688734    -3.628898     1.265242
 H    -3.031413    -3.000125     2.260667
 C    -4.339830    -1.603018     0.241531
 H    -4.457103    -0.737590    -0.426429
 H    -5.014512    -2.396288    -0.120153
 H    -4.690776    -1.310294     1.239989
 H    -1.005738     0.763359     2.058878
 C    -2.992594     0.214936     2.690996
 H    -2.905964     0.855189     3.584010
 H    -3.595071     0.754408     1.947402
 H    -3.554714    -0.681853     2.990945
 C    -0.864970    -1.004796     3.217021
 H     0.173603    -1.191646     2.923167
 H    -0.848781    -0.475297     4.183023
 H    -1.351024    -1.977817     3.379073
 C     1.917564     0.980872     2.016743
 H     2.450686     0.034879     2.135514
 C     0.775297     2.592076     0.650077
 H     0.400669     2.941321    -0.311622
 C     1.681150     1.751669     3.148433
 H     2.026061     1.437966     4.135254
 C     0.519341     3.373208     1.777722
 H    -0.028053     4.315005     1.704820
 C     0.974376     2.942736     3.015265
 F     0.732884     3.682008     4.095939
 H     3.664448    -0.699187     0.266276
 C     4.039580    -0.833161    -1.823057
 H     5.063817    -1.205119    -1.662668
 H     3.383592    -1.695756    -2.005786
 H     4.057093    -0.211083    -2.731070
 C     4.447449     1.190330    -0.360143
 H     4.090175     1.792073     0.487760
 H     5.476106     0.867700    -0.130126
 H     4.502372     1.844297    -1.240645
 H     0.242728     1.556744    -1.882007
 C     2.123569     2.478285    -2.402055
 H     1.620207     3.138129    -3.127246
 H     2.321065     3.064686    -1.494178
 H     3.093877     2.200827    -2.839681
 C     1.142107     0.404226    -3.420219
 H     0.528866    -0.490520    -3.247415
 H     0.669475     1.006222    -4.212536
 H     2.124160     0.077300    -3.792227
