  94
scf done:    -2832.192999
 C    -0.450035    -3.306859    -1.429991
 H    -1.030404    -4.036120    -0.856316
 H    -0.915081    -3.012004    -2.374618
 C     0.957583    -3.277473    -1.282453
 H     1.437893    -3.985864    -0.600605
 H     1.595906    -2.958989    -2.110866
 H     0.254214    -0.918782    -1.732128
Rh     0.108401    -1.563900    -0.286507
 C    -1.503585     1.326017    -1.374700
 C    -3.270706    -0.915147    -1.083343
 C    -2.485928     0.516099     1.195615
 C     1.980865     0.437677     1.958970
 C     3.559916    -0.976444     0.056365
 C     2.125961     1.351731    -0.736664
 P     1.912740    -0.189050     0.231243
 P    -1.756265    -0.174984    -0.346543
 C    -0.006938    -2.449911     1.396614
 O    -0.026542    -3.037849     2.383875
 C    -1.223306     2.572785    -0.807212
 C    -1.487770     1.203101    -2.771400
 C    -0.967802     3.550922    -3.002399
 C    -1.239810     2.309355    -3.577674
 C    -0.949254     3.675192    -1.616051
 H    -1.224058     2.690090     0.278542
 H    -0.718287     4.637774    -1.153743
 H    -0.747441     4.414136    -3.634551
 H    -1.243110     2.197924    -4.664797
 H    -1.673811     0.228148    -3.229419
 C    -4.202258    -0.204516    -1.856308
 H    -4.012818     0.837767    -2.122873
 C    -3.555659    -2.245404    -0.770579
 H    -2.836698    -2.811270    -0.174009
 C    -5.366918    -0.809130    -2.304453
 H    -6.091059    -0.264697    -2.913640
 C    -4.727125    -2.863657    -1.203533
 H    -4.909667    -3.904655    -0.936085
 C    -5.641959    -2.145267    -1.981311
 O    -6.795895    -2.649613    -2.460662
 C    -7.121976    -3.979683    -2.170964
 H    -7.222084    -4.151514    -1.084596
 H    -8.088146    -4.179194    -2.651679
 H    -6.371878    -4.683802    -2.572572
 C    -2.032457     0.091939     2.449664
 H    -1.205030    -0.615261     2.510572
 C    -3.547312     1.427521     1.155182
 H    -3.935872     1.769106     0.192913
 C    -2.605715     0.565821     3.621292
 H    -2.247288     0.237959     4.598634
 C    -4.129819     1.918897     2.319690
 H    -4.952412     2.630428     2.244426
 C    -3.658092     1.487219     3.567629
 O    -4.152516     1.902427     4.749533
 C    -5.216109     2.812601     4.756819
 H    -6.110547     2.403941     4.254423
 H    -5.458346     3.005195     5.809666
 H    -4.944000     3.767748     4.273559
 C     2.987081     0.081419     2.862549
 C     0.944329     1.273046     2.396046
 C     1.917214     1.379677     4.601766
 C     0.913864     1.746397     3.703518
 C     2.950091     0.546809     4.177661
 H     3.807008    -0.562206     2.537617
 H     3.740228     0.255840     4.874291
 H     1.891206     1.742145     5.632260
 H     0.092708     2.391764     4.024664
 H     0.150491     1.551552     1.700525
 C     4.688243    -0.288681    -0.414809
 H     4.596640     0.753045    -0.730064
 C     3.713606    -2.308905     0.445635
 H     2.841885    -2.861942     0.801824
 C     5.922875    -0.915492    -0.491984
 H     6.803836    -0.390166    -0.865813
 C     4.951048    -2.947313     0.388655
 H     5.028713    -3.987615     0.705271
 C     6.067594    -2.250114    -0.088211
 O     7.302958    -2.776077    -0.197035
 C     7.506377    -4.106872     0.186530
 H     6.898536    -4.805695    -0.414926
 H     8.568460    -4.324790     0.016848
 H     7.276032    -4.266951     1.254773
 C     1.928154     1.305427    -2.125553
 H     1.594157     0.372092    -2.585088
 C     2.534445     2.559759    -0.168573
 H     2.712168     2.624437     0.906725
 C     2.128522     2.425005    -2.912215
 H     1.963542     2.396977    -3.990307
 C     2.717610     3.703349    -0.948006
 H     3.020466     4.632199    -0.464044
 C     2.507005     3.641507    -2.328198
 O     2.625019     4.691400    -3.166441
 C     2.983846     5.936336    -2.638311
 H     3.978536     5.909699    -2.159135
 H     3.015537     6.639699    -3.480182
 H     2.246328     6.297102    -1.899147
