 102
scf done:    -2688.680576
 C    -0.071550     3.028945     2.707447
 H     0.280273     2.861288     3.730318
 H     0.562656     3.698899     2.119769
 C    -1.459585     2.957096     2.421909
 H    -2.166193     2.730257     3.226498
 H    -1.875226     3.558479     1.608200
 H    -0.249888     2.129179     0.390851
Rh    -0.485043     1.197170     1.647852
 C     1.724936     0.549935    -0.922510
 C     2.972632     1.188905     1.665201
 C     1.826788    -1.490180     1.206637
 C    -2.061966    -1.554507     0.000478
 C    -3.844669     0.385439     1.055005
 C    -2.352942     0.952994    -1.388013
 P    -2.122204     0.258040     0.321285
 P     1.504102     0.331743     0.882768
 C    -0.665650     0.142128     3.228052
 O    -0.735207    -0.483686     4.191581
 C     1.087773    -0.336157    -1.803003
 C     2.380994     1.662459    -1.460577
 C     1.834124     0.954752    -3.706476
 C     2.443006     1.859848    -2.839630
 C     1.147747    -0.139339    -3.179959
 H     0.537168    -1.193749    -1.414439
 H     0.654029    -0.851834    -3.845155
 H     1.883863     1.107448    -4.786970
 H     2.964217     2.734661    -3.236118
 H     2.831366     2.406715    -0.802104
 H     2.908008     2.234521     1.328625
 H     2.695145     1.209573     2.729734
 C     4.341415     0.609394     1.486187
 C     4.834008    -0.320497     2.411797
 H     4.241241    -0.568342     3.296547
 C     5.146653     0.935098     0.387179
 H     4.788177     1.662424    -0.342773
 C     6.069791    -0.931041     2.214610
 H     6.434178    -1.664222     2.938043
 C     6.391297     0.335614     0.174176
 C     7.226528     0.713090    -1.014589
 H     6.600937     1.055255    -1.851684
 H     7.921288     1.532447    -0.765155
 H     7.833527    -0.134422    -1.364805
 C     6.840487    -0.614365     1.099068
 H     7.805537    -1.104863     0.945307
 H     2.516996    -1.503855     2.065133
 H     0.867483    -1.886237     1.563483
 C     2.347727    -2.358347     0.097676
 C     1.540896    -3.380050    -0.418906
 H     0.548201    -3.549428     0.003025
 C     3.608614    -2.155048    -0.466786
 H     4.245983    -1.359182    -0.081661
 C     1.987733    -4.161151    -1.480524
 H     1.345511    -4.951551    -1.877406
 C     4.071346    -2.927130    -1.536379
 C     5.420329    -2.644364    -2.132115
 H     6.195971    -2.597454    -1.352258
 H     5.711130    -3.411145    -2.864040
 H     5.423639    -1.668629    -2.645153
 C     3.243672    -3.935226    -2.040746
 H     3.587177    -4.547519    -2.879234
 C    -1.844262    -2.397118     1.100376
 C    -2.287501    -2.137758    -1.251316
 C    -2.108021    -4.351937    -0.293405
 C    -2.299374    -3.525199    -1.398025
 C    -1.882780    -3.781844     0.960547
 H    -1.657767    -1.961575     2.085016
 H    -1.723297    -4.419268     1.833552
 H    -2.126996    -5.438249    -0.408644
 H    -2.475178    -3.961023    -2.384443
 H    -2.475432    -1.514548    -2.126678
 H    -3.726439     0.042048     2.093625
 H    -4.054153     1.464768     1.104392
 C    -4.911738    -0.383816     0.340032
 C    -5.668537     0.186252    -0.693360
 H    -5.542745     1.241335    -0.944689
 C    -5.135425    -1.729132     0.653792
 H    -4.562937    -2.184814     1.465793
 C    -6.594202    -0.579063    -1.397353
 H    -7.180482    -0.119637    -2.196966
 C    -6.051030    -2.517207    -0.049309
 C    -6.216944    -3.968454     0.297298
 H    -5.294980    -4.528542     0.071631
 H    -6.421883    -4.103199     1.370724
 H    -7.040291    -4.428592    -0.266799
 C    -6.778890    -1.924412    -1.085650
 H    -7.502585    -2.520992    -1.647652
 H    -1.544278     0.516152    -1.992330
 H    -3.313959     0.590651    -1.785918
 C    -2.256135     2.448324    -1.433878
 C    -3.329658     3.273825    -1.079061
 H    -4.292281     2.836574    -0.808921
 C    -1.044663     3.048516    -1.788056
 H    -0.203944     2.412012    -2.074000
 C    -3.180101     4.657761    -1.065939
 H    -4.025280     5.292191    -0.788182
 C    -0.872799     4.436270    -1.770989
 C     0.461196     5.034405    -2.111019
 H     0.860896     4.615487    -3.046887
 H     0.400721     6.126506    -2.219050
 H     1.197737     4.814226    -1.320604
 C    -1.958113     5.236596    -1.402234
 H    -1.845666     6.324021    -1.382284
