 102
scf done:    -2613.012178
 C     0.862443    -4.152558     1.239327
 H     1.399235    -4.785015     0.525187
 H     1.407000    -3.973171     2.170986
 C    -0.559041    -4.156163     1.249730
 H    -1.100703    -4.794877     0.544366
 H    -1.089363    -3.981599     2.190425
 H     0.123256    -1.803012     1.864767
Rh     0.143120    -2.323528     0.362075
 O     2.707549    -0.187170     1.259723
 C     3.554334    -2.130224    -0.302530
 C     2.027202     0.081826    -1.408862
 O    -1.482398     0.111610    -1.159837
 C    -3.203065    -1.962197    -0.239146
 C    -2.131564     0.116612     1.563095
 P    -1.659776    -0.945225     0.101759
 P     2.058041    -1.094341     0.046287
 C     0.070242    -2.962741    -1.435983
 O    -0.017218    -3.316965    -2.524784
 C     1.968136     0.309965     2.372194
 H     0.895545     0.304536     2.108275
 C     2.421954     1.731781     2.628610
 H     2.261198     2.359235     1.742090
 H     3.495604     1.750449     2.871896
 H     1.867636     2.163601     3.475931
 C     2.183965    -0.608428     3.558640
 H     1.840380    -1.625021     3.319372
 H     3.253388    -0.646511     3.819338
 H     1.625306    -0.251208     4.437259
 H     3.660987    -2.765197     0.590552
 H     3.266415    -2.792955    -1.133610
 C     4.806788    -1.370270    -0.610209
 C     5.257237    -1.235045    -1.930210
 H     4.725655    -1.745528    -2.738213
 C     5.520532    -0.727872     0.407686
 H     5.165414    -0.820790     1.435803
 C     6.379143    -0.461305    -2.216930
 H     6.723380    -0.363960    -3.249362
 C     6.641883     0.061059     0.136878
 C     7.342213     0.786262     1.249168
 H     6.754085     1.661612     1.571701
 H     7.472434     0.141298     2.131045
 H     8.332788     1.147540     0.938517
 C     7.064364     0.187731    -1.191876
 H     7.942555     0.796829    -1.423287
 H     2.775124    -0.267583    -2.136675
 H     1.026162    -0.034155    -1.846049
 C     2.274976     1.514140    -1.051576
 C     1.200467     2.369038    -0.791396
 H     0.182395     1.981242    -0.854725
 C     3.577804     2.015206    -0.946453
 H     4.421951     1.348844    -1.137183
 C     1.432895     3.702629    -0.454931
 H     0.584858     4.366738    -0.270722
 C     3.826627     3.342981    -0.594809
 C     5.234534     3.847602    -0.457651
 H     5.958772     3.113728    -0.838359
 H     5.380840     4.792648    -1.003426
 H     5.481511     4.044204     0.598927
 C     2.733522     4.188005    -0.356208
 H     2.907448     5.234545    -0.089709
 C    -2.506279     0.674875    -1.988355
 H    -3.467175     0.620194    -1.454810
 C    -2.578867    -0.121838    -3.278489
 H    -2.788861    -1.184723    -3.092569
 H    -1.618134    -0.061784    -3.812129
 H    -3.366095     0.274429    -3.937999
 C    -2.184044     2.132355    -2.240069
 H    -2.142912     2.693828    -1.297973
 H    -1.216881     2.233574    -2.755325
 H    -2.961271     2.583096    -2.875757
 H    -3.081078    -2.323289    -1.271968
 H    -3.007440    -2.834291     0.402977
 C    -4.585997    -1.444412     0.014740
 C    -5.135046    -1.514747     1.301857
 H    -4.569261    -1.993130     2.105868
 C    -5.369690    -0.890296    -1.005806
 H    -4.982046    -0.877073    -2.027521
 C    -6.399489    -0.991694     1.563302
 H    -6.812035    -1.049454     2.573331
 C    -6.636584    -0.353286    -0.762766
 C    -7.425400     0.285000    -1.868857
 H    -7.325006     1.382842    -1.835703
 H    -7.077650    -0.047917    -2.857018
 H    -8.497747     0.054547    -1.786192
 C    -7.140391    -0.400801     0.543620
 H    -8.130729     0.010814     0.756600
 H    -2.910686    -0.436916     2.108267
 H    -1.235307     0.109905     2.196438
 C    -2.560502     1.527688     1.294738
 C    -1.637755     2.572413     1.418355
 H    -0.606689     2.355554     1.707972
 C    -3.876422     1.838197     0.931547
 H    -4.612401     1.036132     0.852382
 C    -2.029547     3.888638     1.181104
 H    -1.304483     4.697828     1.297813
 C    -4.279947     3.149927     0.669312
 C    -5.686723     3.438305     0.230713
 H    -6.370835     2.632060     0.532077
 H    -6.057481     4.385436     0.649711
 H    -5.743007     3.525326    -0.867793
 C    -3.337967     4.177653     0.802660
 H    -3.635534     5.212904     0.614324
