 106
scf done:    -2465.451229
 C    -0.610943    -3.853760    -1.295394
 H    -1.430895    -4.390236    -0.806537
 H    -0.764299    -3.697190    -2.367152
 C     0.711263    -3.995500    -0.787457
 H     0.888490    -4.632981     0.084754
 H     1.556924    -3.945563    -1.479028
 H     0.571130    -1.651360    -1.712668
Rh    -0.046274    -2.043317    -0.293143
 C    -0.891362     0.999444    -1.785089
 C    -3.025093    -0.914642    -1.854209
 C    -2.382024     0.426325     0.626709
 C     1.046052     0.558590     1.755932
 C     3.047944    -1.457914     1.446423
 C     2.481030     0.344219    -0.742332
 P     1.642904    -0.676828     0.535805
 P    -1.588220    -0.393375    -0.818810
 C    -0.812831    -2.566336     1.365260
 O    -1.304588    -2.877611     2.358145
 C    -0.325176     0.725534    -3.043607
 H    -0.390053    -0.284855    -3.455226
 C    -0.753075     2.293778    -1.281790
 H    -1.170904     2.555418    -0.309358
 C     0.365835     1.693963    -3.750624
 H     0.817739     1.476516    -4.720228
 C    -0.042272     3.278471    -1.974372
 H     0.057250     4.269948    -1.531575
 C     0.535511     2.978546    -3.210407
 O     1.273008     3.839438    -3.938422
 C     1.521309     5.116943    -3.422292
 H     2.061274     5.070677    -2.459720
 H     2.149343     5.636893    -4.156557
 H     0.589273     5.691700    -3.279789
 H    -2.597508    -1.303457    -2.793411
 H    -3.624469    -0.026461    -2.110318
 C    -3.851284    -1.995257    -1.172642
 H    -3.161232    -2.770816    -0.800859
 H    -4.352181    -1.577441    -0.279727
 C    -4.907843    -2.652613    -2.062849
 H    -4.382273    -3.060851    -2.946927
 C    -5.562935    -3.817653    -1.330343
 H    -4.815421    -4.557569    -1.004687
 H    -6.295687    -4.334967    -1.969063
 H    -6.095682    -3.465067    -0.431138
 C    -5.953765    -1.658338    -2.554772
 H    -6.709523    -2.153676    -3.184079
 H    -5.507328    -0.848346    -3.151005
 H    -6.481945    -1.195384    -1.703623
 H    -1.558512     0.926678     1.162084
 H    -2.685458    -0.399008     1.289276
 C    -3.538080     1.387387     0.377106
 H    -3.356529     1.976162    -0.537534
 H    -4.463600     0.816301     0.182870
 C    -3.782104     2.357639     1.537163
 H    -2.848805     2.935499     1.682622
 C    -4.895296     3.338809     1.192339
 H    -4.673800     3.888618     0.264110
 H    -5.043495     4.078007     1.994934
 H    -5.852383     2.810789     1.045282
 C    -4.072183     1.631103     2.845473
 H    -4.255752     2.348172     3.660894
 H    -3.233331     0.986828     3.149325
 H    -4.969059     0.995303     2.752673
 C     0.954420     1.931480     1.480852
 H     1.363803     2.335658     0.554812
 C     0.498596     0.104613     2.961628
 H     0.533871    -0.958923     3.210246
 C     0.311170     2.801201     2.352109
 H     0.227441     3.866841     2.128961
 C    -0.139698     0.964901     3.852052
 H    -0.562416     0.559682     4.771600
 C    -0.255810     2.325392     3.540462
 O    -0.893335     3.232322     4.306595
 C    -1.451653     2.815610     5.522285
 H    -0.685753     2.411346     6.207214
 H    -1.904258     3.703897     5.980701
 H    -2.235718     2.053311     5.373579
 H     2.604942    -1.967690     2.318336
 H     3.704304    -0.662566     1.834219
 C     3.799116    -2.461039     0.584418
 H     3.060787    -3.137539     0.124933
 H     4.294398    -1.936996    -0.253958
 C     4.847450    -3.290470     1.328746
 H     4.330570    -3.798884     2.164871
 C     5.416418    -4.365046     0.409447
 H     4.620320    -5.010056     0.006394
 H     6.138995    -5.006881     0.937163
 H     5.940475    -3.909111    -0.447416
 C     5.959965    -2.430090     1.917455
 H     6.708678    -3.047708     2.437605
 H     5.577156    -1.695690     2.642050
 H     6.483586    -1.873105     1.121657
 H     1.681505     0.964417    -1.178391
 H     2.743366    -0.367107    -1.539567
 C     3.675164     1.194666    -0.323916
 H     3.539316     1.571554     0.703878
 H     4.586907     0.571556    -0.292668
 C     3.915110     2.392592    -1.248129
 H     2.990359     3.002382    -1.225487
 C     5.059373     3.254968    -0.731025
 H     4.876802     3.591147     0.301852
 H     5.204627     4.149162    -1.357515
 H     6.007461     2.691631    -0.734529
 C     4.146068     1.972998    -2.694919
 H     4.292587     2.850127    -3.343781
 H     3.291854     1.409802    -3.098006
 H     5.043919     1.337490    -2.779537
