  62
scf done:    -1963.549769
 C    -3.682073     1.333735    -0.999649
 H    -4.234926     1.844139    -0.204838
 H    -3.414697     1.978824    -1.841572
 C    -3.895450    -0.052838    -1.220471
 H    -4.615380    -0.588710    -0.593948
 H    -3.790780    -0.464859    -2.228172
 H    -1.443126     0.396102    -1.775343
Rh    -1.979794     0.240522    -0.271404
 C     1.320284     1.477656    -0.492149
 C    -0.715118     3.422430    -0.879162
 C    -0.113680     2.494626     1.791471
 C     0.813043    -1.736613     0.530067
 C    -1.619709    -3.188057     0.526002
 C    -0.445356    -2.406620    -2.009845
 P    -0.812768    -1.754820    -0.323765
 P    -0.381725     1.872068     0.074185
 C    -2.619632    -0.015056     1.494459
 O    -2.983604    -0.225709     2.566100
 C     2.454394     1.564245     0.322690
 H     2.366967     1.871747     1.365380
 C     1.486367     1.057826    -1.820586
 H     0.606888     0.958758    -2.462791
 C     3.719221     1.243813    -0.167072
 H     4.604388     1.287440     0.470087
 C     2.743456     0.747916    -2.328186
 H     2.881160     0.423526    -3.361487
 C     3.847225     0.840354    -1.487671
 F     5.051475     0.512659    -1.956130
 H    -1.735246     3.730838    -0.598251
 C     0.284980     4.553684    -0.720634
 H     1.305730     4.225690    -0.971015
 H     0.302720     4.945961     0.307850
 H    -0.789757     3.094119    -1.928345
 H     0.032227     5.395193    -1.384298
 H     0.734103     3.198464     1.803617
 C    -1.352873     3.150448     2.381146
 H    -2.221992     2.478156     2.348599
 H    -1.623366     4.068025     1.836702
 H     0.184414     1.617972     2.389605
 H    -1.182381     3.428931     3.431946
 C     0.825449    -1.390362     1.889759
 H    -0.114859    -1.169264     2.402697
 C     2.037542    -1.968614    -0.105319
 H     2.073861    -2.209939    -1.168174
 C     2.016874    -1.297896     2.601424
 H     2.033741    -1.029417     3.659399
 C     3.240425    -1.872456     0.591200
 H     4.199515    -2.032682     0.095531
 C     3.214155    -1.538875     1.937073
 F     4.363246    -1.421661     2.602484
 H    -1.692263    -2.902300     1.587713
 C    -2.997652    -3.509381    -0.027456
 H    -2.953183    -3.822620    -1.082262
 H    -3.652257    -2.627667     0.023376
 H    -0.944793    -4.057970     0.480302
 H    -3.468003    -4.325869     0.541229
 H     0.287723    -1.703773    -2.439106
 C     0.006914    -3.853315    -2.137052
 H    -0.792450    -4.552049    -1.849834
 H     0.880025    -4.079135    -1.507159
 H    -1.372010    -2.229689    -2.578053
 H     0.279767    -4.083324    -3.178742
