  90
scf done:    -2578.580604
 C     1.773321     0.570121    -3.262158
 H     1.963215     1.636641    -3.414407
 H     2.675524    -0.024241    -3.091208
 C     0.624944    -0.029608    -3.832600
 H    -0.074249     0.572338    -4.419823
 H     0.643219    -1.087150    -4.108805
 H     1.006787    -1.217991    -1.613901
Rh     0.322194     0.215601    -1.698545
 C     3.322831    -0.059404     0.102326
 O     1.664936     1.621587     1.163693
 O     1.022436    -0.894420     1.241064
 C    -2.418263    -0.459754     0.466181
 O    -2.777026    -0.630884    -2.212897
 O    -1.591574    -2.498997    -0.893212
 P    -1.584678    -0.872908    -1.108936
 P     1.531936     0.284790     0.209738
 C    -0.507123     1.917104    -1.934269
 O    -1.030042     2.918953    -2.137416
 C     3.738846    -1.224102    -0.556571
 H     2.992832    -1.896840    -0.987765
 C     4.289361     0.804894     0.628437
 H     3.968658     1.711518     1.143152
 C     5.089285    -1.531120    -0.679106
 H     5.429082    -2.434965    -1.187737
 C     5.645811     0.513570     0.504464
 H     6.413360     1.177390     0.906626
 C     6.027260    -0.652606    -0.146485
 F     7.321457    -0.936599    -0.266964
 C     0.611807     2.552056     1.333198
 H    -0.146141     2.397169     0.547526
 H     0.124208     2.358381     2.303857
 C     1.166150     3.958643     1.275047
 H     0.353939     4.658804     1.538178
 H     1.932452     4.066535     2.063124
 C     1.756529     4.327118    -0.079244
 H     0.962038     4.280844    -0.842814
 H     2.494676     3.559949    -0.367140
 C     2.405701     5.700907    -0.094710
 H     1.681994     6.490812     0.164006
 H     3.231414     5.762008     0.632736
 H     2.818196     5.941499    -1.086042
 C     1.657710    -1.219362     2.470565
 H     1.381199    -2.267437     2.669079
 H     2.754584    -1.180974     2.351622
 C     1.210782    -0.334286     3.619406
 H     1.695125    -0.710130     4.538244
 H     1.598278     0.685043     3.459936
 C    -0.299158    -0.294815     3.797807
 H    -0.670799    -1.317354     3.987385
 H    -0.758182     0.007955     2.843619
 C    -0.756591     0.635210     4.908378
 H    -0.347101     0.334121     5.886229
 H    -0.424964     1.670245     4.721942
 H    -1.853249     0.651494     4.994624
 C    -2.857187    -1.432932     1.369131
 H    -2.678277    -2.485026     1.143739
 C    -2.641878     0.890831     0.759408
 H    -2.311169     1.662873     0.060968
 C    -3.512801    -1.068185     2.542549
 H    -3.855837    -1.812394     3.263589
 C    -3.296203     1.270676     1.926505
 H    -3.477129     2.318934     2.170292
 C    -3.721539     0.279386     2.804395
 F    -4.325764     0.634749     3.937540
 C    -4.068071    -1.226882    -2.133020
 H    -4.361105    -1.425107    -3.176683
 H    -4.002447    -2.200031    -1.617783
 C    -5.093360    -0.328542    -1.463970
 H    -6.079726    -0.812970    -1.576425
 H    -4.900714    -0.285005    -0.380103
 C    -5.137591     1.084179    -2.027299
 H    -5.401471     1.045359    -3.099076
 H    -4.122516     1.511990    -1.988831
 C    -6.107362     1.985909    -1.282228
 H    -7.137162     1.595389    -1.324284
 H    -5.831343     2.066630    -0.218008
 H    -6.120068     3.003258    -1.701732
 C    -0.720538    -3.374244    -1.595573
 H    -1.345505    -4.202501    -1.969323
 H    -0.284466    -2.856106    -2.465639
 C     0.376227    -3.890116    -0.688523
 H     1.013801    -4.568618    -1.283411
 H     1.005504    -3.036332    -0.387942
 C    -0.122254    -4.601574     0.560377
 H    -0.815471    -5.413111     0.274868
 H    -0.714565    -3.887409     1.155642
 C     1.007516    -5.164184     1.407436
 H     1.588574    -5.918673     0.852884
 H     1.710182    -4.370792     1.709088
 H     0.631169    -5.642883     2.324254
