 102
scf done:    -3061.224331
 C    -0.736698     0.221083    -3.962598
 H    -1.591790    -0.380251    -4.285199
 H    -0.867343     1.296779    -4.104265
 C     0.557217    -0.339482    -3.970844
 H     0.697804    -1.380573    -4.275411
 H     1.429806     0.294044    -4.143890
 H     0.406925     1.293770    -1.935136
Rh    -0.136690    -0.198827    -1.910771
 C    -1.607144     2.377436     0.044109
 O    -3.353475     0.878548    -1.085858
 O    -1.948932    -0.281339     0.746058
 C     1.658776    -2.216800     0.270182
 O     3.209509    -0.718655    -1.156342
 O     1.854483     0.491023     0.644285
 P     1.648190    -0.620481    -0.588662
 P    -1.767536     0.691555    -0.604119
 C    -0.771291    -2.019382    -1.893836
 O    -1.128076    -3.104836    -1.882289
 C    -2.663090     3.301045     0.074709
 H    -3.631352     3.023295    -0.340761
 C    -0.370411     2.747060     0.577023
 H     0.460060     2.038073     0.558334
 C    -2.481826     4.555306     0.634214
 H    -3.291488     5.286917     0.661590
 C    -0.182932     3.999684     1.154824
 H     0.793866     4.250060     1.568672
 C    -1.242450     4.915521     1.185000
 O    -1.161388     6.149727     1.711638
 C     0.051741     6.566936     2.275460
 H     0.868257     6.573162     1.532335
 H    -0.106168     7.590265     2.638373
 H     0.349955     5.928108     3.125138
 C    -4.235234    -0.106599    -1.443916
 C    -3.914309    -1.063510    -2.403686
 H    -2.939972    -1.013051    -2.885727
 C    -5.498626    -0.085001    -0.828143
 C    -5.861495     0.994218     0.143731
 H    -5.118934     1.082638     0.949416
 H    -5.910581     1.973730    -0.359200
 H    -6.841499     0.796814     0.598020
 C    -4.832828    -2.059535    -2.728291
 H    -4.568151    -2.815324    -3.471062
 C    -6.400239    -1.094681    -1.175627
 H    -7.383689    -1.100585    -0.697775
 C    -6.076971    -2.083113    -2.104592
 H    -6.802209    -2.862854    -2.347299
 C    -2.899545    -0.201301     1.733696
 C    -2.981033     0.907647     2.575547
 H    -2.286932     1.736568     2.440657
 C    -3.737154    -1.317063     1.904375
 C    -3.589722    -2.527976     1.035636
 H    -4.280826    -3.320309     1.352410
 H    -3.797088    -2.298141    -0.019932
 H    -2.564498    -2.926374     1.073009
 C    -3.948582     0.942286     3.578151
 H    -4.016946     1.815769     4.230501
 C    -4.695086    -1.252157     2.920197
 H    -5.361518    -2.107013     3.063709
 C    -4.815063    -0.134744     3.745259
 H    -5.577417    -0.113196     4.527207
 C     0.520151    -2.535309     1.029947
 H    -0.325587    -1.841247     1.057009
 C     2.723895    -3.115783     0.234060
 H     3.611118    -2.871021    -0.350208
 C     0.465627    -3.714226     1.752393
 H    -0.407348    -3.972180     2.354945
 C     2.670413    -4.314019     0.944785
 H     3.515661    -5.000546     0.893783
 C     1.540813    -4.617325     1.714416
 O     1.396464    -5.739822     2.439385
 C     2.428559    -6.687179     2.437917
 H     3.368367    -6.270055     2.840423
 H     2.099999    -7.510403     3.084542
 H     2.619982    -7.082835     1.425143
 C     3.985586     0.295264    -1.652456
 C     3.480474     1.292735    -2.482842
 H     2.415782     1.300677    -2.714265
 C     5.342293     0.265873    -1.286861
 C     5.853949    -0.800178    -0.369252
 H     5.272734    -0.828194     0.565496
 H     5.770601    -1.796954    -0.831531
 H     6.908974    -0.627601    -0.117717
 C     4.333064     2.276914    -2.979224
 H     3.930770     3.057203    -3.629349
 C     6.172212     1.266287    -1.798391
 H     7.230087     1.258522    -1.521723
 C     5.683158     2.265497    -2.640426
 H     6.356928     3.033971    -3.025736
 C     2.918933     0.544966     1.516224
 C     3.117095    -0.467527     2.459379
 H     2.420373    -1.303267     2.501243
 C     3.756797     1.671005     1.473641
 C     3.522465     2.811041     0.529033
 H     4.358028     2.911513    -0.180387
 H     2.606204     2.676474    -0.055986
 H     3.446596     3.759219     1.084882
 C     4.193038    -0.398406     3.338582
 H     4.344194    -1.196883     4.068485
 C     4.830708     1.710527     2.371650
 H     5.498518     2.576286     2.344101
 C     5.063010     0.689426     3.287424
 H     5.912831     0.750162     3.971042
