  90
scf done:    -4741.968927
 C    -0.116061     3.978066     0.759141
 H    -0.908295     4.518808     0.234797
 H    -0.215509     3.960210     1.847622
 C     1.157977     3.854079     0.166975
 H     1.351071     4.302482    -0.811641
 H     2.044076     3.737352     0.794717
 H     0.769572     1.659439     1.397564
Rh     0.108666     1.954711    -0.012574
 C    -1.565659     0.134625     2.551235
 O    -3.123576     1.486507     0.946544
 O    -1.929585    -0.585073    -0.045546
 C     1.380869    -0.585370    -2.182251
 O     3.182138     0.819188    -0.942376
 O     1.775589    -0.796335     0.484469
 P     1.583255     0.405711    -0.686251
 P    -1.605046     0.786366     0.867277
 C    -0.637375     2.405620    -1.737961
 O    -1.043780     2.700265    -2.764039
 C    -2.544565     0.415799     3.514850
 H    -3.385436     1.062378     3.257987
 C    -0.481989    -0.677560     2.898331
 H     0.307358    -0.872170     2.166906
 C    -2.447810    -0.120377     4.788346
 H    -3.199068     0.088762     5.552020
 C    -0.384508    -1.230900     4.171481
 H     0.467688    -1.867412     4.409584
 C    -1.372546    -0.955887     5.126377
 O    -1.368101    -1.437659     6.380219
 C    -0.325350    -2.284869     6.780024
 H     0.655208    -1.780369     6.727624
 H    -0.527510    -2.560245     7.822565
 H    -0.287034    -3.203121     6.168511
 C    -3.583581     2.230768    -0.107542
 C    -3.996855     1.608065    -1.285715
 H    -3.948486     0.521150    -1.366944
 C    -3.643084     3.617766     0.015801
 H    -3.313426     4.080667     0.947067
 C    -4.461414     2.376926    -2.348424
 H    -4.780605     1.904644    -3.278472
 C    -4.109884     4.389101    -1.043499
 H    -4.157938     5.476117    -0.963115
 C    -4.511096     3.764195    -2.224258
Cl    -5.078243     4.723675    -3.549516
 C    -2.730103    -1.652222     0.240463
 C    -2.366117    -2.873675    -0.333496
 H    -1.478613    -2.913750    -0.968097
 C    -3.885342    -1.565527     1.020563
 H    -4.190206    -0.608576     1.441406
 C    -3.135071    -4.010139    -0.112295
 H    -2.856006    -4.966264    -0.557851
 C    -4.651559    -2.705969     1.248858
 H    -5.551852    -2.649089     1.862615
 C    -4.274011    -3.923712     0.688196
Cl    -5.230746    -5.339666     0.977103
 C     0.074989    -0.912276    -2.579658
 H    -0.775107    -0.508439    -2.024859
 C     2.459025    -1.118505    -2.895153
 H     3.478027    -0.861706    -2.602525
 C    -0.143480    -1.767413    -3.647219
 H    -1.153173    -2.033389    -3.965359
 C     2.249443    -1.975158    -3.971269
 H     3.109922    -2.377697    -4.505633
 C     0.942467    -2.313041    -4.348793
 O     0.638691    -3.139681    -5.361838
 C     1.677666    -3.729597    -6.095897
 H     2.324068    -4.356471    -5.457360
 H     1.203569    -4.364363    -6.854699
 H     2.301484    -2.972862    -6.602507
 C     3.855079     1.694182    -0.139728
 C     4.603067     2.696706    -0.757056
 H     4.606059     2.755582    -1.846729
 C     3.824089     1.596806     1.253382
 H     3.233089     0.814089     1.730480
 C     5.316503     3.608663     0.012556
 H     5.900647     4.399844    -0.459869
 C     4.530496     2.514944     2.025664
 H     4.505543     2.456058     3.114819
 C     5.272508     3.517439     1.403943
Cl     6.150653     4.659517     2.366916
 C     2.394309    -1.988733     0.223909
 C     3.785743    -2.081145     0.175666
 H     4.392859    -1.189915     0.340090
 C     1.606392    -3.122503     0.025770
 H     0.521115    -3.026440     0.079967
 C     4.387933    -3.307329    -0.093323
 H     5.474650    -3.394418    -0.138395
 C     2.204182    -4.348948    -0.241705
 H     1.597810    -5.241446    -0.403517
 C     3.594745    -4.433449    -0.307942
Cl     4.344820    -5.956876    -0.656146
