 106
scf done:    -2839.427447
 C    -1.058517    -1.082222    -3.159034
 H    -1.781563    -1.901077    -3.095015
 H    -1.482762    -0.141960    -3.521315
 C     0.313034    -1.359934    -3.351762
 H     0.650539    -2.397136    -3.447642
 H     0.936839    -0.629539    -3.873985
 H     0.265880     0.679873    -1.837769
Rh    -0.043214    -0.780652    -1.282190
 C    -1.696786     2.038440     0.251160
 C    -3.389966     0.018817    -1.154325
 C    -2.298825    -0.500684     1.473757
 C     2.487938    -1.717839     1.018228
 C     3.484556    -0.107456    -1.107986
 C     1.804498     1.119775     0.966534
 P     1.936125    -0.345341    -0.132015
 P    -1.850045     0.220847    -0.168610
 C    -0.376951    -2.545691    -0.652285
 O    -0.577819    -3.612634    -0.271438
 H    -0.853611     1.999471     0.966654
 C    -2.888766     2.651023     0.991605
 H    -3.089614     2.072775     1.903986
 H    -3.800626     2.577678     0.377766
 C    -2.638597     4.111062     1.355322
 H    -3.526596     4.524883     1.861107
 H    -1.807823     4.166897     2.082266
 C    -2.280138     4.937867     0.128785
 H    -2.111555     5.991888     0.404723
 H    -3.129812     4.932084    -0.578904
 C    -1.044121     4.359965    -0.546454
 H    -0.196057     4.443530     0.152358
 H    -0.777145     4.945166    -1.442534
 C    -1.224561     2.894914    -0.931668
 H    -1.937177     2.838021    -1.769310
 H    -0.284304     2.476187    -1.318333
 C    -4.007977     1.051046    -1.858227
 H    -3.618314     2.063900    -1.779922
 C    -3.935070    -1.278791    -1.280922
 O    -3.313797    -2.248062    -0.583692
 C    -3.797781    -3.559684    -0.619297
 H    -4.823227    -3.624481    -0.214846
 H    -3.120417    -4.153887     0.005288
 H    -3.789550    -3.970126    -1.644160
 C    -5.129893     0.829762    -2.660506
 H    -5.586405     1.663929    -3.197376
 C    -5.059550    -1.508245    -2.075932
 H    -5.475733    -2.512022    -2.163442
 C    -5.654966    -0.451271    -2.765621
 H    -6.532180    -0.642310    -3.388444
 C    -1.281270    -1.142129     2.176038
 H    -0.304231    -1.190945     1.694830
 C    -3.589088    -0.487030     2.049275
 O    -4.566373     0.115405     1.349335
 C    -5.887020     0.074824     1.802000
 H    -6.245990    -0.962209     1.923626
 H    -6.491203     0.571671     1.032257
 H    -6.012217     0.610225     2.760000
 C    -1.486657    -1.731402     3.422427
 H    -0.661060    -2.223492     3.941237
 C    -3.810319    -1.089539     3.293308
 H    -4.806307    -1.082067     3.736685
 C    -2.760400    -1.701694     3.977169
 H    -2.953123    -2.165025     4.948029
 H     1.582149    -1.941963     1.612459
 C     3.640683    -1.430496     1.979772
 H     3.470401    -0.506507     2.549661
 H     4.557780    -1.262950     1.391383
 C     3.852841    -2.612925     2.922542
 H     4.686862    -2.400628     3.611753
 H     2.953926    -2.736491     3.554686
 C     4.113189    -3.905382     2.156625
 H     4.206906    -4.755176     2.852590
 H     5.084215    -3.821227     1.635699
 C     3.022243    -4.174317     1.125773
 H     2.070359    -4.400289     1.639446
 H     3.269974    -5.067083     0.528846
 C     2.815843    -2.975318     0.206875
 H     3.738212    -2.789804    -0.370375
 H     2.028191    -3.184050    -0.530416
 C     3.526656    -0.716136    -2.361192
 H     2.625081    -1.230879    -2.697130
 C     4.635660     0.576832    -0.660153
 O     4.575594     1.146326     0.559169
 C     5.658755     1.879913     1.046661
 H     6.558139     1.251766     1.175576
 H     5.351317     2.270955     2.025073
 H     5.911629     2.728510     0.386362
 C     4.663848    -0.667084    -3.168689
 H     4.664350    -1.158142    -4.143870
 C     5.772973     0.644254    -1.471189
 H     6.660685     1.177893    -1.130713
 C     5.783717     0.021025    -2.719626
 H     6.682879     0.080200    -3.338125
 C     1.412929     0.996111     2.299995
 H     1.227396     0.007207     2.719164
 C     2.012298     2.417973     0.455312
 O     2.325215     2.494147    -0.850644
 C     2.689375     3.720293    -1.414423
 H     1.858764     4.446317    -1.390832
 H     2.953427     3.513637    -2.459025
 H     3.564241     4.158654    -0.902164
 C     1.250354     2.110203     3.125763
 H     0.933016     1.977249     4.161782
 C     1.898240     3.534045     1.287479
 H     2.095676     4.532930     0.897821
 C     1.509929     3.377643     2.619148
 H     1.406560     4.260152     3.255012
