 110
scf done:    -2243.795300
 C    -1.570932     0.199054    -3.239432
 H    -2.393061    -0.498445    -3.430092
 H    -1.862605     1.252062    -3.296001
 C    -0.240321    -0.177981    -3.568071
 H    -0.050716    -1.161403    -4.009858
 H     0.477615     0.588470    -3.875447
 H    -0.039598     1.285227    -1.478870
Rh    -0.489633    -0.247017    -1.429929
 C    -1.718707     2.335898     0.653966
 C    -3.707208     0.393020    -0.123880
 C    -1.763622    -0.243315     1.932393
 C     2.162761    -2.156973    -0.137859
 C     3.003170     0.308126    -1.454399
 C     1.746943     0.457689     1.149593
 P     1.609896    -0.410427    -0.480940
 P    -1.901371     0.525913     0.245696
 C    -0.930894    -2.090824    -1.391991
 O    -1.151306    -3.221227    -1.373832
 H    -0.637896     2.424326     0.873706
 C    -2.487951     2.837500     1.876957
 H    -2.263682     2.224938     2.763494
 H    -3.573388     2.742094     1.695549
 C    -2.156573     4.299837     2.169489
 H    -2.738067     4.651851     3.037258
 H    -1.092219     4.372710     2.459265
 C    -2.409515     5.191262     0.959456
 H    -2.122281     6.231796     1.182151
 H    -3.493514     5.208003     0.744015
 C    -1.666093     4.680319    -0.269311
 H    -0.577075     4.771615    -0.103683
 H    -1.898635     5.303700    -1.147901
 C    -2.001603     3.221528    -0.559939
 H    -3.070746     3.144147    -0.827582
 H    -1.428289     2.851246    -1.423585
 H    -3.860789     0.988042    -1.039656
 H    -4.276701     0.879635     0.684864
 C    -4.190385    -1.029557    -0.361074
 H    -3.488722    -1.528622    -1.048846
 H    -4.157195    -1.602692     0.583334
 C    -5.600876    -1.135664    -0.945851
 H    -5.602106    -0.570089    -1.897020
 C    -5.928858    -2.589447    -1.265591
 H    -5.182738    -3.029257    -1.945400
 H    -6.918032    -2.685000    -1.739740
 H    -5.940282    -3.199327    -0.346583
 C    -6.659197    -0.524573    -0.034453
 H    -7.665822    -0.628860    -0.468381
 H    -6.486038     0.547801     0.141640
 H    -6.666962    -1.028618     0.947155
 H    -2.704038    -0.081365     2.486625
 H    -0.985782     0.335024     2.457420
 C    -1.393433    -1.718179     1.913230
 H    -2.171794    -2.287722     1.380271
 H    -0.480928    -1.843603     1.306978
 C    -1.169492    -2.357990     3.285583
 H    -2.077664    -2.183736     3.893360
 C    -0.986674    -3.863949     3.131643
 H    -1.853656    -4.327135     2.636041
 H    -0.848336    -4.357440     4.106136
 H    -0.098412    -4.085836     2.515855
 C     0.015928    -1.750262     4.028611
 H     0.136205    -2.205294     5.023825
 H    -0.089937    -0.664590     4.175210
 H     0.953118    -1.924641     3.472767
 H     1.254197    -2.601659     0.309737
 C     3.305191    -2.380507     0.851147
 H     3.092794    -1.879769     1.808130
 H     4.236127    -1.934068     0.457250
 C     3.520696    -3.872813     1.099674
 H     4.364862    -4.022059     1.792610
 H     2.626738    -4.277919     1.608535
 C     3.749768    -4.642412    -0.195953
 H     3.854475    -5.719549     0.012446
 H     4.707324    -4.318710    -0.643446
 C     2.625362    -4.396315    -1.195809
 H     1.682414    -4.821904    -0.808636
 H     2.833540    -4.915659    -2.145191
 C     2.428464    -2.905688    -1.446370
 H     3.341074    -2.498158    -1.916759
 H     1.605540    -2.731903    -2.157295
 H     3.077665    -0.290566    -2.376337
 H     3.940431     0.159827    -0.893594
 C     2.792264     1.771125    -1.818020
 H     1.854604     1.848310    -2.390520
 H     2.625548     2.373590    -0.906124
 C     3.933210     2.403810    -2.617679
 H     4.113729     1.762251    -3.501081
 C     3.520854     3.783676    -3.117564
 H     2.608660     3.732034    -3.731893
 H     4.313377     4.247409    -3.725341
 H     3.312891     4.459331    -2.270733
 C     5.230756     2.482677    -1.820096
 H     6.037008     2.940263    -2.414236
 H     5.582699     1.491285    -1.497283
 H     5.094475     3.099759    -0.915438
 H     1.272289    -0.219765     1.879161
 H     1.060405     1.310359     1.051784
 C     3.095902     0.939017     1.665461
 H     3.841090     0.130421     1.623919
 H     3.482641     1.735710     1.006627
 C     3.044649     1.475176     3.100289
 H     2.704189     0.645756     3.749632
 C     4.437997     1.888548     3.559319
 H     5.153503     1.055865     3.473175
 H     4.435141     2.223590     4.608114
 H     4.821202     2.720552     2.945011
 C     2.054918     2.625322     3.259446
 H     2.073650     3.023798     4.285534
 H     1.019615     2.318194     3.046801
 H     2.303943     3.454862     2.575790
