  80
scf done:    -2449.152970
 C     0.638888    -3.489092    -0.775310
 H    -0.075503    -4.127273    -0.245413
 H     0.555836    -3.531749    -1.864281
 C     1.881136    -3.183170    -0.175071
 H     2.114614    -3.574876     0.819362
 H     2.756053    -2.983479    -0.797842
 H     1.250440    -1.113069    -1.501887
Rh     0.604929    -1.430887    -0.083821
 C    -0.820559     0.673768    -2.460525
 O    -2.593033    -0.896524    -1.506620
 O    -1.654320     0.850725     0.162533
 C     1.488263     1.139554     2.171738
 O     3.468800     0.187416     0.798987
 O     1.744880     1.613173    -0.501084
 P     1.822747     0.343452     0.579719
 P    -1.140945    -0.286511    -0.960686
 C    -0.133683    -1.850065     1.640189
 O    -0.566010    -2.082585     2.674510
 H     0.009323     1.361644    -2.247792
 H    -0.499843    -0.035298    -3.236399
 H    -1.718870     1.206551    -2.797540
 C    -3.454690    -1.706401    -0.811295
 C    -3.009335    -2.798968    -0.070640
 H    -1.943444    -3.024610    -0.055081
 C    -4.821086    -1.396271    -0.913675
 C    -5.279615    -0.258547    -1.771546
 H    -4.880109     0.701801    -1.413753
 H    -4.927657    -0.381886    -2.807431
 H    -6.375925    -0.193076    -1.780828
 C    -3.927123    -3.575085     0.635075
 H    -3.573404    -4.423864     1.224782
 C    -5.716846    -2.195353    -0.198595
 H    -6.784030    -1.965032    -0.259865
 C    -5.283715    -3.267589     0.581152
 H    -6.008830    -3.868956     1.133872
 C    -2.819576     1.573225     0.172002
 C    -3.025002     2.623886    -0.722733
 H    -2.255485     2.863974    -1.457045
 C    -3.759144     1.271378     1.172934
 C    -3.493379     0.181799     2.164096
 H    -3.494012    -0.809469     1.685016
 H    -2.505717     0.304824     2.632905
 H    -4.258003     0.175804     2.952065
 C    -4.201989     3.368255    -0.661667
 H    -4.361986     4.186327    -1.367545
 C    -4.929407     2.034828     1.209445
 H    -5.674955     1.810161     1.976847
 C    -5.161406     3.067049     0.301357
 H    -6.087776     3.643036     0.355062
 H     1.660781     0.384096     2.951146
 H     2.141811     2.006446     2.341899
 H     0.434498     1.448234     2.199141
 C     4.223511    -0.682755     0.053792
 C     4.262251    -0.592649    -1.335370
 H     3.665767     0.171420    -1.835850
 C     4.955008    -1.654790     0.750185
 C     4.843549    -1.746305     2.240308
 H     5.066628    -0.780798     2.719142
 H     3.816353    -2.016189     2.536473
 H     5.526882    -2.505732     2.643674
 C     5.043394    -1.490163    -2.060277
 H     5.068501    -1.427708    -3.150500
 C     5.740793    -2.532981    -0.000000
 H     6.318027    -3.300068     0.523336
 C     5.786202    -2.460885    -1.392003
 H     6.401800    -3.166408    -1.954270
 C     1.734248     2.952162    -0.183091
 C     0.520856     3.540858     0.170088
 H    -0.367320     2.910114     0.227545
 C     2.915022     3.703604    -0.280574
 C     4.206982     3.064130    -0.686683
 H     4.488149     2.256135     0.004057
 H     4.125342     2.609873    -1.686596
 H     5.018878     3.803144    -0.712431
 C     0.462970     4.903654     0.447853
 H    -0.490415     5.358562     0.726121
 C     2.826168     5.071618     0.001898
 H     3.733387     5.677906    -0.069131
 C     1.621998     5.672132     0.365133
 H     1.590764     6.742658     0.579783
