  90
scf done:    -2531.538857
 C    -0.579207    -2.161433    -2.841787
 H    -1.135069    -3.086922    -2.663306
 H    -1.092273    -1.454662    -3.499555
 C     0.834061    -2.176305    -2.767076
 H     1.349516    -3.113290    -2.535887
 H     1.427960    -1.480136    -3.365130
 H     0.107577     0.085805    -1.976590
Rh     0.043473    -1.183259    -1.021935
 C    -1.642474     1.812725    -0.446438
 C    -3.374317    -0.349414    -1.213737
 C    -2.444540    -0.202795     1.428455
 C     1.996857    -0.473528     1.838708
 C     3.505689    -0.820429    -0.559113
 C     2.092347     1.616205    -0.102009
 P     1.875414    -0.202135     0.023229
 P    -1.817308    -0.008573    -0.291637
 C    -0.002797    -2.780895     0.017404
 O     0.006690    -3.775760     0.591649
 C    -1.406528     2.632040     0.661425
 C    -1.646071     2.390233    -1.724447
 C    -1.224883     4.569158    -0.771274
 C    -1.458751     3.759034    -1.883369
 C    -1.186250     3.999899     0.498245
 H    -1.404894     2.202001     1.665421
 H    -0.989709     4.622702     1.374034
 H    -1.065272     5.642829    -0.897391
 H    -1.481400     4.195535    -2.885030
 H    -1.799171     1.757060    -2.602323
 C    -3.657636    -1.687506    -1.513685
 H    -2.926129    -2.455260    -1.250745
 C    -4.316220     0.623479    -1.562033
 H    -4.128170     1.675830    -1.337770
 C    -4.847665    -2.040305    -2.138315
 H    -5.047605    -3.093258    -2.356707
 C    -5.502373     0.264583    -2.200361
 H    -6.223008     1.042975    -2.467164
 C    -5.790803    -1.069728    -2.501397
 C    -7.055055    -1.454084    -3.212237
 H    -7.802142    -0.648765    -3.172404
 H    -6.858656    -1.671795    -4.275322
 H    -7.502384    -2.359395    -2.774834
 C    -3.592527     0.475907     1.866555
 H    -4.124962     1.143058     1.184435
 C    -1.799340    -1.057837     2.319617
 H    -0.901833    -1.588340     2.001400
 C    -4.062710     0.307398     3.161416
 H    -4.956970     0.848987     3.483230
 C    -2.277803    -1.228844     3.618956
 H    -1.745921    -1.900143     4.298470
 C    -3.414050    -0.551233     4.063483
 C    -3.945908    -0.742224     5.453276
 H    -3.236091    -1.294525     6.084774
 H    -4.158051     0.223184     5.938106
 H    -4.890984    -1.309606     5.438285
 C     2.900724    -1.374874     2.410812
 C     1.092522     0.197334     2.673489
 C     1.996794    -0.925753     4.609601
 C     1.097287    -0.019161     4.047588
 C     2.894479    -1.602901     3.787123
 H     3.620555    -1.899878     1.779715
 H     3.604686    -2.312757     4.218187
 H     1.997617    -1.102808     5.687837
 H     0.383079     0.513716     4.679826
 H     0.377321     0.899067     2.239189
 C     3.644420    -2.186473    -0.834966
 H     2.777087    -2.842121    -0.731722
 C     4.620987     0.007521    -0.718754
 H     4.540156     1.077044    -0.513669
 C     4.867588    -2.710315    -1.238590
 H     4.952837    -3.782265    -1.438462
 C     5.839084    -0.520841    -1.140926
 H     6.697250     0.146135    -1.263542
 C     5.987472    -1.885834    -1.406943
 C     7.292289    -2.447006    -1.890453
 H     7.299207    -2.532557    -2.990069
 H     8.138351    -1.805211    -1.605970
 H     7.472507    -3.454076    -1.486162
 C     2.655634     2.383647     0.924471
 H     2.952664     1.909665     1.862080
 C     1.747067     2.255477    -1.297202
 H     1.298025     1.669244    -2.102326
 C     2.843125     3.754357     0.763169
 H     3.275871     4.335546     1.582477
 C     1.953762     3.619958    -1.457745
 H     1.670354     4.095975    -2.400167
 C     2.491915     4.398762    -0.427075
 C     2.644476     5.882039    -0.586523
 H     3.004598     6.145253    -1.592327
 H     1.674060     6.388338    -0.447636
 H     3.343973     6.300929     0.150744
