  82
scf done:    -2675.179268
 C     0.224441    -3.171054    -2.612302
 H     0.640253    -3.030179    -3.614165
 H     0.859831    -3.750572    -1.936684
 C    -1.175612    -3.144989    -2.419274
 H    -1.844623    -2.981361    -3.268648
 H    -1.619507    -3.706976    -1.593826
 H    -0.113696    -2.124097    -0.347432
Rh    -0.320695    -1.291939    -1.682917
 C     2.865960    -1.505747    -0.300458
 O     2.352822     0.747760    -1.731026
 O     1.143536     0.419920     0.566451
 C    -1.925998     1.585635    -0.285010
 O    -3.460169    -0.604426    -0.774187
 O    -1.825213    -0.507743     1.220212
 P    -1.870034    -0.232941    -0.422698
 P     1.531673    -0.383106    -0.826142
 C    -0.481004    -0.380556    -3.366893
 O    -0.535891     0.140883    -4.384325
 C     2.647699    -2.324422     0.815325
 C     4.034384    -1.653258    -1.052679
 C     4.787380    -3.386117     0.453024
 C     4.994412    -2.590349    -0.672320
 C     3.610691    -3.254285     1.192721
 H     1.721692    -2.233423     1.389727
 H     3.438578    -3.883379     2.069237
 H     5.541006    -4.119290     0.750187
 H     5.907471    -2.701805    -1.262068
 H     4.184419    -1.038388    -1.942486
 C     2.970134     1.874235    -1.245092
 C     4.361280     1.963496    -1.270624
 H     4.945555     1.133661    -1.669959
 C     2.200710     2.929407    -0.753303
 H     1.113355     2.842800    -0.745292
 C     4.983774     3.106652    -0.773112
 H     6.074200     3.174475    -0.788881
 C     2.833805     4.060864    -0.248379
 H     2.228255     4.875216     0.155939
 C     4.225271     4.153118    -0.250913
 H     4.718027     5.041351     0.150155
 C     1.826148     0.968636     1.617647
 C     3.203197     0.870301     1.815107
 H     3.830386     0.330597     1.108223
 C     1.031593     1.678185     2.521827
 H    -0.039169     1.747785     2.322206
 C     3.775598     1.493514     2.922967
 H     4.856198     1.422745     3.067677
 C     1.616970     2.291013     3.624885
 H     0.989835     2.848792     4.324664
 C     2.993631     2.201917     3.832449
 H     3.454785     2.687069     4.695274
 C    -1.484704     2.346158    -1.371110
 C    -2.407832     2.233935     0.859900
 C    -1.999883     4.378964    -0.176239
 C    -2.441217     3.624398     0.911355
 C    -1.524452     3.738934    -1.319152
 H    -1.093214     1.848344    -2.260493
 H    -1.171954     4.323436    -2.172039
 H    -2.026085     5.470469    -0.131489
 H    -2.817230     4.123473     1.807589
 H    -2.752797     1.641768     1.708871
 C    -4.522598     0.018914    -0.167730
 C    -5.145105     1.084719    -0.817271
 H    -4.762112     1.408902    -1.786475
 C    -4.978951    -0.419873     1.075505
 H    -4.480328    -1.256871     1.566724
 C    -6.228074     1.718511    -0.213975
 H    -6.713872     2.554942    -0.721980
 C    -6.062868     0.222774     1.670877
 H    -6.421276    -0.119698     2.644624
 C    -6.688398     1.292945     1.032059
 H    -7.537112     1.793174     1.503702
 C    -1.492581    -1.699590     1.792613
 C    -2.058615    -2.903873     1.366912
 H    -2.770878    -2.901329     0.539454
 C    -0.571487    -1.680238     2.840463
 H    -0.137078    -0.726464     3.144326
 C    -1.686784    -4.092296     1.991844
 H    -2.123590    -5.034449     1.652381
 C    -0.213957    -2.874989     3.461396
 H     0.509053    -2.857246     4.280631
 C    -0.764463    -4.084994     3.037645
 H    -0.477357    -5.020217     3.523058
