 110
scf done:    -2917.572884
 C    -0.169082     1.514346     3.702523
 H     0.346251     0.927606     4.469709
 H     0.328271     2.455951     3.452698
 C    -1.578616     1.408992     3.570124
 H    -2.133549     0.738607     4.234529
 H    -2.156637     2.278442     3.242870
 H    -0.647506     1.772635     1.221418
Rh    -0.629274     0.359997     1.943316
 C     2.308949     1.381794     0.075049
 C     2.693005    -0.200203     2.465428
 C     1.656206    -1.523530    -0.008075
 C    -2.275712    -1.261508    -0.831894
 C    -3.881793    -0.629887     1.435578
 C    -3.098769     1.493396    -0.340409
 P    -2.385327     0.003549     0.495526
 P     1.502012     0.038677     1.024525
 C    -0.677553    -1.340311     2.793055
 O    -0.725136    -2.376134     3.295173
 C     1.710880     2.651018     0.045445
 H     0.739472     2.788302     0.526344
 C     3.540980     1.225754    -0.575576
 H     4.048089     0.262977    -0.580400
 C     2.318774     3.718301    -0.595406
 H     1.849260     4.702113    -0.617487
 C     4.152290     2.286561    -1.240798
 H     5.102419     2.111365    -1.745706
 C     3.541963     3.545642    -1.253587
 O     4.049123     4.631302    -1.870661
 C     5.265509     4.511370    -2.552427
 H     5.206453     3.773856    -3.372410
 H     5.487377     5.498300    -2.978164
 H     6.089504     4.221715    -1.876481
 H     2.913926     0.833472     2.772380
 H     2.069359    -0.627801     3.260251
 C     3.949737    -0.990519     2.281910
 C     5.106601    -0.370518     1.792741
 H     5.079200     0.700684     1.581781
 C     3.999350    -2.362460     2.618022
 C     2.830332    -3.065908     3.247850
 H     1.915185    -3.016631     2.639247
 H     2.572965    -2.621288     4.223085
 H     3.058021    -4.127020     3.417756
 C     6.279092    -1.086462     1.572513
 H     7.162895    -0.578895     1.179013
 C     5.189356    -3.066177     2.397239
 H     5.228054    -4.128026     2.655797
 C     6.318426    -2.447271     1.865690
 H     7.231244    -3.024301     1.699848
 H     1.837812    -2.322277     0.725511
 H     0.635685    -1.667072    -0.382358
 C     2.627673    -1.623981    -1.142843
 C     3.867854    -2.247700    -0.968440
 H     4.117535    -2.673724     0.005141
 C     2.299716    -1.076899    -2.401875
 C     0.972738    -0.421067    -2.632507
 H     0.808078     0.413559    -1.933550
 H     0.138876    -1.127304    -2.489194
 H     0.901654    -0.020388    -3.653078
 C     4.799115    -2.304164    -2.001903
 H     5.766200    -2.784023    -1.833954
 C     3.244970    -1.146145    -3.429674
 H     2.995856    -0.713751    -4.402790
 C     4.489293    -1.743344    -3.238626
 H     5.211299    -1.776378    -4.058368
 C    -2.830275    -1.139944    -2.115246
 H    -3.387673    -0.245433    -2.396410
 C    -1.623279    -2.458269    -0.521259
 H    -1.194985    -2.590189     0.475613
 C    -2.696320    -2.150125    -3.056280
 H    -3.115874    -2.049052    -4.058867
 C    -1.492468    -3.491192    -1.447239
 H    -0.966589    -4.401408    -1.159007
 C    -2.016143    -3.333580    -2.736442
 O    -1.919211    -4.251298    -3.713765
 C    -1.205769    -5.431721    -3.464049
 H    -1.667104    -6.027286    -2.656822
 H    -1.230032    -6.015515    -4.392629
 H    -0.154425    -5.224122    -3.198563
 H    -3.597168    -1.654151     1.723845
 H    -3.903428    -0.039790     2.361301
 C    -5.188595    -0.609189     0.705971
 C    -5.464448    -1.600027    -0.246240
 H    -4.740113    -2.403213    -0.397684
 C    -6.143374     0.406481     0.933728
 C    -5.958191     1.443941     2.006375
 H    -5.046607     2.045730     1.870184
 H    -5.880424     0.980426     3.003241
 H    -6.809791     2.137543     2.028837
 C    -6.635263    -1.580203    -0.998298
 H    -6.821602    -2.363459    -1.736845
 C    -7.314158     0.411422     0.167297
 H    -8.053934     1.197569     0.342490
 C    -7.562164    -0.560827    -0.798583
 H    -8.485270    -0.528375    -1.382149
 H    -3.893407     1.162728    -1.027695
 H    -3.615282     2.011047     0.475657
 C    -2.147121     2.437358    -1.021182
 C    -1.491569     2.060419    -2.198733
 H    -1.633324     1.052070    -2.589347
 C    -1.936373     3.737468    -0.512905
 C    -2.580698     4.199750     0.762130
 H    -2.294471     3.550314     1.603848
 H    -3.681199     4.192607     0.697003
 H    -2.271692     5.224822     1.007734
 C    -0.657065     2.938447    -2.883844
 H    -0.153208     2.610363    -3.795712
 C    -1.104083     4.611754    -1.220522
 H    -0.950170     5.621305    -0.828897
 C    -0.468864     4.227567    -2.397893
 H     0.182986     4.928636    -2.923991
