  74
scf done:    -1922.275601
 C    -0.629763    -3.421464    -1.223831
 H    -0.941549    -4.168594    -0.486862
 H    -1.375299    -3.234722    -2.002863
 C     0.753673    -3.282981    -1.530192
 H     1.481140    -3.926402    -1.024172
 H     1.055772    -2.984526    -2.538394
 H    -0.264668    -1.013148    -1.785399
Rh     0.107123    -1.602458    -0.360525
 C    -1.798635     1.242001    -0.884729
 C    -3.343650    -1.143198    -0.397579
 C    -2.001635     0.379152     1.874519
 C     1.565113     1.154443     1.144514
 C     3.495529    -0.675372     0.050266
 C     1.877864     1.186786    -1.748416
 P     1.788210     0.024017    -0.291258
 P    -1.764722    -0.288648     0.143722
 C     0.602528    -2.465809     1.256633
 O     0.961897    -3.059076     2.175579
 C    -1.704538     2.536992    -0.362504
 C    -1.843133     1.097922    -2.281460
 C    -1.676724     3.488506    -2.587018
 C    -1.789373     2.204012    -3.122388
 C    -1.636750     3.648365    -1.205338
 H    -1.661631     2.697755     0.714136
 H    -1.552095     4.647581    -0.770411
 H    -1.622656     4.358364    -3.245818
 H    -1.823267     2.061323    -4.205185
 H    -1.893276     0.097384    -2.717225
 H    -3.013160    -1.541861    -1.372546
 C    -3.635379    -2.340972     0.499191
 H    -4.378675    -3.000567     0.023909
 H    -2.725323    -2.929687     0.686231
 H    -4.051911    -2.025664     1.468357
 C    -4.580078    -0.284226    -0.633187
 H    -4.360999     0.602639    -1.244941
 H    -5.342113    -0.876565    -1.166061
 H    -5.033914     0.056061     0.307113
 H    -1.190083     1.126443     1.929814
 C    -3.333713     1.070549     2.151576
 H    -3.268997     1.639973     3.093224
 H    -3.634967     1.767137     1.357306
 H    -4.140624     0.333122     2.275796
 C    -1.701546    -0.658149     2.949622
 H    -0.703600    -1.093227     2.828609
 H    -1.738085    -0.179331     3.941219
 H    -2.432038    -1.480181     2.949498
 C     1.665872     0.603439     2.433122
 C     1.198435     2.500807     1.032435
 C     1.027315     2.705448     3.437817
 C     0.927520     3.266585     2.167971
 C     1.406157     1.367735     3.565350
 H     1.935799    -0.447932     2.556405
 H     1.489319     0.911967     4.554893
 H     0.814317     3.305558     4.325469
 H     0.635129     4.313466     2.052155
 H     1.099069     2.966636     0.052434
 H     3.262042    -1.380527     0.867619
 C     3.980487    -1.508137    -1.130772
 H     4.843714    -2.123673    -0.831946
 H     3.189932    -2.177451    -1.497964
 H     4.309080    -0.868479    -1.964292
 C     4.565272     0.286308     0.553490
 H     4.206303     0.914455     1.381252
 H     5.431587    -0.287735     0.921369
 H     4.930068     0.949488    -0.242231
 H     0.924747     1.734753    -1.634210
 C     3.031926     2.185365    -1.744284
 H     2.841990     2.976011    -2.488373
 H     3.185830     2.670059    -0.770358
 H     3.975066     1.695739    -2.028957
 C     1.799403     0.459528    -3.086871
 H     0.972025    -0.262785    -3.097634
 H     1.635822     1.191299    -3.893952
 H     2.729073    -0.083274    -3.312642
