 102
scf done:    -2538.792952
 C    -0.629145     0.136040    -3.719018
 H    -1.196065    -0.681631    -4.176632
 H    -1.107615     1.115455    -3.812185
 C     0.787779     0.046393    -3.661123
 H     1.281910    -0.838172    -4.075538
 H     1.398224     0.952827    -3.703902
 H     0.064272     1.322671    -1.638238
Rh    -0.009963    -0.258839    -1.694268
 C    -2.180920     1.677018     0.388814
 C    -3.417469    -0.677709    -0.744636
 C    -1.510954    -0.995019     1.350853
 C     2.176171    -1.226788     1.080214
 C     3.403348     0.315527    -1.006909
 C     1.543191     1.592292     0.766192
 P     1.768740     0.054384    -0.215456
 P    -1.784740    -0.044863    -0.196107
 C    -0.176519    -2.142994    -1.930051
 O    -0.334319    -3.259504    -2.154795
 H    -1.264068     1.978788     0.929715
 C    -3.386597     1.792934     1.322109
 H    -3.310835     1.095860     2.169974
 H    -4.293990     1.501789     0.765713
 C    -3.543468     3.225119     1.827111
 H    -4.414863     3.294607     2.498684
 H    -2.658441     3.493484     2.433299
 C    -3.681513     4.207821     0.670141
 H    -3.748782     5.241892     1.046833
 H    -4.630880     4.007040     0.141408
 C    -2.523244     4.070606    -0.310951
 H    -1.587790     4.390551     0.181513
 H    -2.667372     4.741178    -1.173814
 C    -2.349030     2.634126    -0.792652
 H    -3.233676     2.328099    -1.380811
 H    -1.479795     2.550819    -1.461684
 C    -3.739245    -0.596529    -2.103180
 H    -2.986689    -0.219197    -2.798638
 C    -4.374343    -1.193026     0.139370
 H    -4.144274    -1.274212     1.204308
 C    -4.988522    -1.004930    -2.562936
 H    -5.219674    -0.928192    -3.629152
 C    -5.616205    -1.610930    -0.328398
 H    -6.348040    -2.013368     0.378033
 C    -5.947727    -1.523817    -1.686608
 C    -7.276379    -2.007400    -2.188901
 H    -7.240758    -3.086278    -2.415670
 H    -8.069322    -1.858247    -1.441433
 H    -7.571526    -1.489233    -3.112647
 C    -1.211312    -0.407962     2.582976
 H    -1.234169     0.675687     2.696487
 C    -1.465889    -2.396003     1.263616
 H    -1.699948    -2.887498     0.315852
 C    -0.852163    -1.190946     3.681722
 H    -0.613163    -0.701943     4.630642
 C    -1.121848    -3.170887     2.362722
 H    -1.096168    -4.259635     2.262214
 C    -0.791786    -2.582930     3.593450
 C    -0.360824    -3.426237     4.756391
 H    -1.022185    -4.295458     4.891492
 H     0.658445    -3.818096     4.599112
 H    -0.353973    -2.851351     5.693020
 H     1.299163    -1.205086     1.753019
 C     3.445104    -0.942333     1.885147
 H     3.427775     0.070065     2.316065
 H     4.310575    -0.967357     1.201249
 C     3.643040    -1.985171     2.981557
 H     4.559731    -1.762895     3.551997
 H     2.804243    -1.923105     3.699484
 C     3.705375    -3.390557     2.395736
 H     3.811309    -4.140799     3.196690
 H     4.610076    -3.476629     1.767045
 C     2.473874    -3.686744     1.548835
 H     1.583754    -3.720019     2.200919
 H     2.555431    -4.681510     1.081369
 C     2.244565    -2.628194     0.474097
 H     3.066417    -2.666087    -0.263777
 H     1.317842    -2.847564    -0.072450
 C     3.741151    -0.492642    -2.098903
 H     2.999112    -1.194600    -2.486436
 C     4.350861     1.233063    -0.539195
 H     4.114346     1.873286     0.313884
 C     4.994725    -0.396006    -2.694600
 H     5.237760    -1.042604    -3.542611
 C     5.597737     1.336911    -1.150403
 H     6.322225     2.063033    -0.770428
 C     5.944325     0.525320    -2.236652
 C     7.277125     0.661162    -2.912564
 H     8.035909     1.071823    -2.230974
 H     7.639324    -0.307198    -3.287977
 H     7.211001     1.341388    -3.778347
 C     1.294807     1.607060     2.140452
 H     1.339128     0.684575     2.718936
 C     1.480302     2.814329     0.076762
 H     1.666255     2.832013    -1.000011
 C     0.953985     2.792581     2.795832
 H     0.747521     2.768510     3.869762
 C     1.160916     3.993278     0.735161
 H     1.118001     4.928020     0.168901
 C     0.869130     4.003916     2.107947
 C     0.452809     5.271078     2.793753
 H     1.118257     6.108150     2.533090
 H    -0.566645     5.562908     2.489746
 H     0.454261     5.159481     3.887067
