  48
scf done:    -1381.981825
 C    -0.712449    -2.811462    -0.614487
 H    -1.477500    -3.223765     0.051123
 H    -0.986277    -2.826712    -1.673735
 C     0.655264    -2.899652    -0.246965
 H     0.929700    -3.377266     0.698706
 H     1.418837    -2.984562    -1.025630
 H     0.402983    -0.670295    -1.525075
Rh    -0.018753    -0.864949     0.010161
 C    -2.247288     0.360045    -2.393251
 C    -3.399481    -0.075961     0.212055
 C    -1.777041     2.259531    -0.331710
 C     2.413933     0.707056     2.039593
 C     3.444589    -0.478701    -0.322375
 C     1.980829     2.013500    -0.487051
 P     1.914611     0.343999     0.309127
 P    -1.821869     0.431663    -0.611457
 C    -0.479835    -1.022303     1.844271
 O    -0.750578    -1.075302     2.961297
 H    -1.387496     0.731470    -2.968462
 H    -2.407597    -0.690834    -2.673522
 H    -3.139398     0.952510    -2.646601
 H    -3.188859    -0.061695     1.294115
 C    -4.661612     0.708236    -0.106110
 H    -4.897318     0.695098    -1.181224
 H    -4.581199     1.761222     0.204852
 H    -3.513397    -1.142226    -0.044893
 H    -5.528647     0.280317     0.420897
 H    -2.700045     2.719255    -0.723799
 C    -1.552989     2.627726     1.125188
 H    -0.664862     2.112052     1.523672
 H    -2.407500     2.334937     1.755020
 H    -0.949807     2.631740    -0.958057
 H    -1.407703     3.711702     1.249760
 H     2.493476    -0.244866     2.584244
 H     3.375216     1.238707     2.106741
 H     1.630757     1.306846     2.526024
 H     3.483578    -1.447574     0.201786
 C     3.456325    -0.689694    -1.826913
 H     3.483559     0.266662    -2.372674
 H     2.554089    -1.228505    -2.152084
 H     4.326096     0.099071     0.004731
 H     4.338181    -1.271044    -2.136806
 H     1.178323     2.592607    -0.002110
 C     3.296895     2.773022    -0.444537
 H     4.097275     2.238352    -0.977862
 H     3.641141     2.944817     0.586722
 H     1.645899     1.853176    -1.524802
 H     3.192993     3.760951    -0.919962
