 102
scf done:    -2387.437466
 C     1.027606    -1.404006    -3.392869
 H     1.554300    -0.706058    -4.050105
 H     1.665361    -2.173116    -2.951398
 C    -0.352769    -1.637675    -3.575727
 H    -0.886747    -1.122588    -4.380270
 H    -0.782961    -2.600833    -3.289202
 H     0.024611    -1.771664    -1.050636
Rh    -0.031070    -0.374412    -1.814637
 C     1.574375    -0.390964     1.351812
 O     3.076213    -0.806894    -0.950001
 O     2.316812     1.551998    -0.266496
 C    -2.245910     1.710376    -0.061254
 O    -3.375274    -0.446805    -1.066283
 O    -1.783066    -0.816026     0.929309
 P    -1.868333    -0.036075    -0.524991
 P     1.739119     0.011012    -0.440000
 C    -0.237473     1.250079    -2.794180
 O    -0.427901     2.211090    -3.394838
 H     0.561371    -0.015097     1.582905
 C     2.569641     0.291660     2.291345
 H     2.529982     1.381160     2.151292
 H     3.597968    -0.017404     2.039062
 C     2.291451    -0.082645     3.743774
 H     3.026384     0.404742     4.405077
 H     1.300686     0.309989     4.036855
 C     2.309334    -1.593422     3.941996
 H     2.090644    -1.848103     4.992119
 H     3.326650    -1.974279     3.735710
 C     1.314010    -2.275899     3.011972
 H     0.293969    -1.970631     3.296986
 H     1.356608    -3.370600     3.133114
 C     1.543944    -1.909010     1.550466
 H     2.498148    -2.341465     1.206244
 H     0.755266    -2.345741     0.919011
 C     4.419415    -0.515474    -0.598322
 H     4.958385    -0.326153    -1.543438
 H     4.471258     0.409370    -0.000820
 C     5.071068    -1.670304     0.135912
 H     6.129584    -1.405034     0.307885
 H     4.618430    -1.772617     1.137252
 C     4.976135    -2.997790    -0.601641
 H     5.466809    -2.901635    -1.586399
 H     3.914841    -3.204619    -0.815859
 C     5.586927    -4.153487     0.173135
 H     6.655279    -3.980855     0.382194
 H     5.081789    -4.292650     1.142950
 H     5.505562    -5.100895    -0.380750
 C     2.627170     2.334454    -1.408186
 H     3.727810     2.388781    -1.492303
 H     2.252450     1.841500    -2.321874
 C     2.040786     3.722811    -1.275391
 H     2.325108     4.294577    -2.176275
 H     0.940188     3.652005    -1.295364
 C     2.490786     4.462127    -0.023645
 H     3.594864     4.493245     0.001465
 H     2.187314     3.876775     0.860179
 C     1.934675     5.873529     0.068832
 H     2.256780     6.488816    -0.786799
 H     0.833319     5.868110     0.072509
 H     2.267061     6.381172     0.987059
 H    -2.258133     2.203317    -1.053575
 C    -1.108193     2.325716     0.753972
 H    -0.140180     2.152841     0.260629
 H    -1.058074     1.815557     1.731544
 C    -1.331166     3.817878     0.974089
 H    -0.520206     4.231028     1.595593
 H    -1.270518     4.336225    -0.000226
 C    -2.688729     4.099254     1.608058
 H    -2.846915     5.184854     1.713605
 H    -2.701891     3.682217     2.631776
 C    -3.818919     3.469859     0.800764
 H    -3.879433     3.959749    -0.187946
 H    -4.788991     3.645753     1.293764
 C    -3.596474     1.972816     0.603990
 H    -3.615354     1.483981     1.592695
 H    -4.404606     1.526156     0.006813
 C    -3.554154    -1.306348    -2.184281
 H    -4.486342    -0.978749    -2.672479
 H    -2.719054    -1.155177    -2.885528
 C    -3.643184    -2.761421    -1.775762
 H    -3.615227    -3.380879    -2.689549
 H    -2.727007    -3.015874    -1.212144
 C    -4.885031    -3.097535    -0.961029
 H    -5.777696    -2.959722    -1.596381
 H    -4.986704    -2.362577    -0.145614
 C    -4.869090    -4.506006    -0.391184
 H    -4.776623    -5.260851    -1.188705
 H    -4.015382    -4.649153     0.291609
 H    -5.787394    -4.728929     0.173080
 C    -2.904236    -1.297426     1.653469
 H    -3.755980    -0.604245     1.565360
 H    -3.225547    -2.259202     1.220803
 C    -2.524374    -1.492957     3.104884
 H    -3.406004    -1.902831     3.628386
 H    -1.744672    -2.271092     3.165943
 C    -2.042804    -0.230611     3.804559
 H    -2.828539     0.543452     3.745321
 H    -1.182247     0.172366     3.246134
 C    -1.651331    -0.459262     5.254927
 H    -2.499387    -0.839367     5.846979
 H    -0.837979    -1.198586     5.335503
 H    -1.301826     0.469207     5.731325
