 106
scf done:    -2839.580036
 C    -1.087776    -3.296429    -1.164515
 H    -2.002165    -3.673670    -0.697266
 H    -1.197441    -3.040052    -2.221077
 C     0.180425    -3.657094    -0.657662
 H     0.253068    -4.325042     0.205918
 H     1.049310    -3.677171    -1.320130
 H     0.403777    -1.258035    -1.460048
Rh    -0.263552    -1.613971    -0.064845
 C    -0.992874     1.671611    -1.396104
 O    -3.034719     0.005726    -1.231363
 O    -2.026024     0.838810     1.023347
 C     1.940748    -0.677644     2.549676
 O     3.103032    -1.225380     0.255742
 O     1.653936     0.951877     0.338726
 P     1.605655    -0.666193     0.744656
 P    -1.567444     0.196490    -0.454188
 C    -1.100828    -2.126440     1.583517
 O    -1.616893    -2.442810     2.556925
 H    -0.367709     2.187066    -0.645341
 C    -2.079412     2.630728    -1.892313
 H    -2.747094     2.939068    -1.077997
 H    -2.707781     2.100014    -2.626171
 C    -1.447605     3.862039    -2.536218
 H    -2.239615     4.537038    -2.899314
 H    -0.891913     4.424444    -1.763820
 C    -0.500240     3.491076    -3.670613
 H    -0.023465     4.393432    -4.086947
 H    -1.083203     3.038154    -4.493091
 C     0.555026     2.497106    -3.201426
 H     1.219989     2.984292    -2.465359
 H     1.196757     2.187062    -4.042477
 C    -0.075907     1.270236    -2.553932
 H    -0.664416     0.709646    -3.302942
 H     0.698500     0.582673    -2.192583
 C    -3.804252    -1.112250    -1.063501
 C    -4.102970    -1.604180     0.205833
 H    -3.719538    -1.084534     1.086002
 C    -4.289423    -1.750076    -2.205191
 H    -4.035260    -1.345743    -3.186325
 C    -4.872334    -2.764253     0.356469
 C    -5.171964    -3.287049     1.731326
 H    -4.260007    -3.327477     2.346057
 H    -5.886375    -2.631587     2.255802
 H    -5.608864    -4.294612     1.693039
 C    -5.065107    -2.894658    -2.059138
 H    -5.443597    -3.406591    -2.947204
 C    -5.348119    -3.405008    -0.791471
 H    -5.946480    -4.314108    -0.691729
 C    -2.693136     2.013344     1.237575
 C    -4.065990     2.101887     1.015578
 H    -4.601088     1.226480     0.642460
 C    -1.975937     3.110000     1.718124
 H    -0.906479     3.001471     1.908286
 C    -4.742751     3.306391     1.237987
 C    -6.221559     3.392558     0.994555
 H    -6.485359     3.001263     0.000162
 H    -6.777907     2.794491     1.734378
 H    -6.582000     4.428369     1.061795
 C    -2.645454     4.309043     1.940672
 H    -2.093423     5.176657     2.310241
 C    -4.014691     4.410447     1.695615
 H    -4.529105     5.359067     1.868643
 H     0.980767    -0.309888     2.961310
 C     3.068481     0.219281     3.058812
 H     2.897086     1.265136     2.767000
 H     4.016130    -0.090059     2.586001
 C     3.193745     0.122333     4.577776
 H     4.031370     0.750663     4.921229
 H     2.281747     0.541689     5.039994
 C     3.376345    -1.316110     5.046525
 H     3.424762    -1.358314     6.146664
 H     4.345538    -1.697415     4.676909
 C     2.258252    -2.211994     4.526395
 H     1.298464    -1.907312     4.980961
 H     2.427362    -3.257764     4.829625
 C     2.141120    -2.126537     3.009158
 H     3.064030    -2.511807     2.542775
 H     1.319946    -2.763848     2.645948
 C     3.344809    -1.698838    -1.006156
 C     3.121899    -0.899989    -2.124646
 H     2.747723     0.116453    -1.990324
 C     3.847353    -2.992065    -1.143536
 H     4.010915    -3.596983    -0.250295
 C     3.370907    -1.390163    -3.411192
 C     3.070763    -0.534008    -4.606758
 H     3.468496     0.484532    -4.480420
 H     3.496436    -0.958272    -5.526640
 H     1.981972    -0.439177    -4.752588
 C     4.112852    -3.477589    -2.419727
 H     4.505069    -4.490173    -2.540724
 C     3.871472    -2.688574    -3.545081
 H     4.075092    -3.086948    -4.542226
 C     2.605059     1.930822     0.334407
 C     3.961883     1.693549     0.113062
 H     4.318626     0.671572    -0.005370
 C     2.139293     3.239844     0.498329
 H     1.074373     3.407305     0.666902
 C     4.868452     2.759133     0.057540
 C     6.327577     2.478703    -0.158264
 H     6.781368     2.040679     0.745915
 H     6.478562     1.757685    -0.975839
 H     6.883843     3.395033    -0.400013
 C     3.038503     4.298071     0.438994
 H     2.674150     5.320598     0.564191
 C     4.395494     4.064397     0.219255
 H     5.094280     4.903114     0.171635
