  76
scf done:    -2545.127864
 C     0.026954    -3.696336     1.996399
 H     0.686689    -4.473694     1.597810
 H     0.376286    -3.250079     2.932123
 C    -1.365709    -3.758003     1.730790
 H    -1.763732    -4.582443     1.130873
 H    -2.070352    -3.358126     2.465834
 H    -0.766994    -1.281927     1.809873
Rh    -0.480586    -2.200419     0.530305
 C     1.900847     0.101916     1.773726
 C     2.927062    -2.199140     0.361819
 C     1.794426     0.085523    -1.136203
 C    -3.143389    -2.107004    -1.717267
 C    -3.746104    -0.998259     0.870895
 C    -2.295427     0.489419    -1.170310
 P    -2.350160    -1.171601    -0.352268
 P     1.495537    -0.998700     0.371146
 C    -0.109582    -3.277115    -0.991573
 O     0.135974    -3.903367    -1.923909
 H     1.145706     0.896984     1.826380
 H     1.844459    -0.493692     2.696010
 H     2.890918     0.567472     1.670552
 H     2.860810    -2.688903     1.346457
 H     2.647648    -2.965598    -0.376250
 C     4.306031    -1.690387     0.088297
 C     4.875863    -1.837934    -1.183715
 H     4.313999    -2.354885    -1.966376
 C     5.066351    -1.052383     1.078473
 H     4.661421    -0.951067     2.087811
 C     6.146530    -1.345714    -1.474190
 H     6.593842    -1.460265    -2.463115
 C     6.334142    -0.548156     0.805694
 H     6.927405    -0.046127     1.571970
 C     6.857852    -0.695632    -0.473468
 F     8.070429    -0.214218    -0.741121
 H     2.350561    -0.532603    -1.858380
 H     0.794020     0.249823    -1.560293
 C     2.474516     1.402490    -0.898384
 C     1.711306     2.526635    -0.557097
 H     0.624649     2.443385    -0.516637
 C     3.865586     1.548537    -0.962866
 H     4.487943     0.697286    -1.239707
 C     2.305578     3.749835    -0.261566
 H     1.707663     4.618914     0.019536
 C     4.478037     2.766381    -0.677839
 H     5.562399     2.881347    -0.727892
 C     3.689531     3.853147    -0.321434
 F     4.271910     5.018392    -0.037793
 H    -3.357934    -3.126824    -1.366991
 H    -4.071337    -1.633593    -2.071578
 H    -2.431013    -2.180991    -2.551772
 H    -3.933214    -2.027014     1.215570
 H    -3.331008    -0.455074     1.731943
 C    -4.993262    -0.347641     0.360500
 C    -5.159190     1.043036     0.429384
 H    -4.382921     1.654749     0.895485
 C    -6.014763    -1.103720    -0.230358
 H    -5.919274    -2.191638    -0.277585
 C    -6.294320     1.663077    -0.084902
 H    -6.427925     2.745043    -0.031118
 C    -7.157917    -0.500366    -0.748637
 H    -7.958386    -1.085666    -1.204709
 C    -7.280810     0.881237    -0.673342
 F    -8.370144     1.467382    -1.168140
 H    -1.590723     0.360545    -2.010925
 H    -3.283509     0.673355    -1.625942
 C    -1.899855     1.691081    -0.353007
 C    -2.005035     2.962923    -0.935756
 H    -2.372852     3.053800    -1.961304
 C    -1.435134     1.609018     0.964125
 H    -1.313218     0.629541     1.433138
 C    -1.643371     4.113160    -0.242387
 H    -1.713230     5.102687    -0.697675
 C    -1.076746     2.752876     1.677991
 H    -0.704562     2.691353     2.702296
 C    -1.176719     3.991503     1.061890
 F    -0.806196     5.087356     1.723153
