 102
scf done:    -3061.094054
 C    -0.594657    -0.821600    -3.870226
 H    -1.147231    -1.727923    -4.139786
 H    -1.066660     0.106450    -4.203943
 C     0.815837    -0.891455    -3.738558
 H     1.321818    -1.848408    -3.901555
 H     1.424642    -0.013440    -3.973606
 H     0.039697     0.829953    -2.088301
Rh    -0.058433    -0.725486    -1.781830
 C    -1.477049     1.781382     0.096529
 C    -3.441282     0.385842    -1.457035
 C    -2.524828    -0.772332     0.920353
 C     1.440712    -0.515972     1.426112
 C     3.123963    -1.623283    -0.588879
 C     2.695263     1.187436    -0.470091
 P     1.777847    -0.395304    -0.374917
 P    -1.864597     0.114566    -0.554898
 C    -0.157216    -2.614582    -1.542157
 O    -0.186072    -3.759940    -1.450000
 C    -1.642984     2.907029    -0.727454
 H    -2.156950     2.805350    -1.686448
 C    -0.798689     1.947191     1.305763
 H    -0.641262     1.094531     1.967550
 C    -1.133643     4.142644    -0.360848
 H    -1.246200     5.016212    -1.005811
 C    -0.274102     3.183223     1.682864
 H     0.275853     3.255786     2.621105
 C    -0.421240     4.286839     0.838656
 O     0.101497     5.506235     1.078589
 C     0.962053     5.661115     2.173279
 H     1.832355     4.985285     2.100582
 H     1.314921     6.699933     2.150963
 H     0.445725     5.481452     3.132788
 C    -4.439378     1.252831    -0.981570
 H    -4.263087     1.846583    -0.081100
 C    -3.704877    -0.360806    -2.603281
 H    -2.931666    -1.036232    -2.974281
 C    -5.648844     1.375430    -1.643623
 H    -6.428025     2.051975    -1.287254
 C    -4.923239    -0.256415    -3.276269
 H    -5.090719    -0.857013    -4.170561
 C    -5.902836     0.619385    -2.799454
 O    -7.106533     0.803840    -3.375641
 C    -7.419680     0.076290    -4.529796
 H    -7.409413    -1.012434    -4.344754
 H    -8.432936     0.376043    -4.826121
 H    -6.724646     0.300531    -5.358243
 C    -2.538605    -2.174358     0.917085
 H    -2.133488    -2.716146     0.060006
 C    -3.077210    -0.117534     2.023069
 H    -3.103790     0.973478     2.053411
 C    -3.050889    -2.893174     1.986236
 H    -3.057162    -3.984814     1.985821
 C    -3.590341    -0.823929     3.110612
 H    -4.001245    -0.271166     3.955962
 C    -3.570102    -2.222074     3.101899
 O    -4.014356    -2.995594     4.114978
 C    -4.649699    -2.383699     5.202131
 H    -5.536695    -1.806813     4.886783
 H    -4.969363    -3.189464     5.875080
 H    -3.970028    -1.709884     5.754235
 C     1.949032     0.374445     2.383258
 H     2.633114     1.168417     2.076879
 C     0.565432    -1.515147     1.857936
 H     0.150443    -2.215258     1.131447
 C     1.564991     0.283386     3.714544
 H     1.941345     0.983970     4.462775
 C     0.180380    -1.628731     3.190132
 H    -0.524691    -2.411106     3.470288
 C     0.666033    -0.710725     4.128094
 O     0.321490    -0.708740     5.430664
 C    -0.579806    -1.680960     5.883405
 H    -0.173137    -2.701489     5.772173
 H    -0.750126    -1.480923     6.948975
 H    -1.542579    -1.629472     5.345815
 C     3.652793    -2.382405     0.464097
 H     3.262353    -2.253645     1.475871
 C     3.652148    -1.811633    -1.869641
 H     3.250368    -1.233326    -2.704074
 C     4.669453    -3.301035     0.240307
 H     5.081359    -3.900434     1.054472
 C     4.680199    -2.720434    -2.106119
 H     5.066356    -2.835148    -3.119233
 C     5.193617    -3.478861    -1.046009
 O     6.178584    -4.390619    -1.170517
 C     6.729908    -4.619816    -2.436198
 H     7.203906    -3.711942    -2.849948
 H     7.498040    -5.393441    -2.309998
 H     5.973785    -4.982421    -3.154880
 C     1.999461     2.374310    -0.737803
 H     0.939691     2.324937    -0.994694
 C     4.058753     1.270488    -0.174305
 H     4.626702     0.359092     0.028451
 C     2.634325     3.604733    -0.675901
 H     2.088543     4.531365    -0.864148
 C     4.714943     2.500470    -0.122908
 H     5.780246     2.525481     0.107946
 C     3.998125     3.679581    -0.361190
 O     4.531960     4.916922    -0.310701
 C     5.894053     5.053070    -0.020413
 H     6.527356     4.549099    -0.771785
 H     6.114086     6.128170    -0.036070
 H     6.144895     4.652408     0.978021
