  90
scf done:    -2380.194207
 C     1.506628     0.758608    -3.315336
 H     1.754491     1.820938    -3.397971
 H     2.377154     0.096397    -3.302443
 C     0.260758     0.286599    -3.794660
 H    -0.454394     0.982790    -4.241925
 H     0.171389    -0.739661    -4.160501
 H     0.807294    -1.124839    -1.748934
Rh     0.219820     0.348191    -1.627173
 C     3.377599    -0.276860    -0.220472
 O     1.956858     1.379459     1.180930
 O     1.161818    -1.092684     1.088435
 C    -2.299794    -0.360381     0.786146
 O    -2.966439    -0.290170    -1.835147
 O    -1.749309    -2.319312    -0.816954
 P    -1.671266    -0.683091    -0.902329
 P     1.635519     0.156663     0.124529
 C    -0.506667     2.111914    -1.614895
 O    -0.973436     3.159705    -1.669972
 C     3.635727    -1.401275    -1.015482
 C     4.450087     0.484002     0.256553
 C     6.010500    -1.002373    -0.839216
 C     5.760132     0.121882    -0.055135
 C     4.944592    -1.765597    -1.317365
 H     2.800801    -1.988644    -1.406893
 H     5.134160    -2.646218    -1.935726
 H     7.037960    -1.283819    -1.082365
 H     6.591666     0.723481     0.320203
 H     4.247254     1.357748     0.877338
 C     0.996337     2.350687     1.550923
 H     0.149965     2.320979     0.845036
 H     0.601410     2.092533     2.548247
 C     1.640159     3.720000     1.559603
 H     0.913217     4.438519     1.977404
 H     2.493322     3.702135     2.260884
 C     2.105004     4.185050     0.186272
 H     1.230980     4.264377    -0.481671
 H     2.749920     3.406582    -0.254426
 C     2.846601     5.510813     0.223210
 H     2.214681     6.314087     0.635766
 H     3.748876     5.447594     0.853053
 H     3.165166     5.823636    -0.782540
 C     1.908291    -1.587683     2.191594
 H     1.565309    -2.626016     2.327889
 H     2.981955    -1.621829     1.936927
 C     1.684491    -0.792534     3.464274
 H     2.247011    -1.293425     4.272427
 H     2.133906     0.206900     3.347350
 C     0.218540    -0.661776     3.848704
 H    -0.213559    -1.668312     3.989377
 H    -0.335819    -0.224965     3.003004
 C    -0.003045     0.174311     5.096914
 H     0.512678    -0.254482     5.971609
 H     0.380641     1.199352     4.962899
 H    -1.072931     0.252233     5.341976
 C    -2.421774     0.972865     1.195161
 C    -2.694163    -1.381448     1.655472
 C    -3.354041     0.259564     3.304178
 C    -3.220973    -1.070180     2.908390
 C    -2.948801     1.282864     2.445793
 H    -2.120235     1.778603     0.521777
 H    -3.046035     2.327337     2.751444
 H    -3.769228     0.500889     4.285646
 H    -3.528792    -1.873921     3.581755
 H    -2.588997    -2.419225     1.336359
 C    -4.270187    -0.833704    -1.654311
 H    -4.688921    -0.927146    -2.669505
 H    -4.199170    -1.849891    -1.231045
 C    -5.164737     0.045856    -0.798769
 H    -6.181392    -0.385012    -0.833676
 H    -4.847644    -0.012739     0.254605
 C    -5.199063     1.502589    -1.236560
 H    -5.587132     1.568872    -2.268558
 H    -4.165051     1.881022    -1.284604
 C    -6.026284     2.376846    -0.309153
 H    -7.073437     2.036392    -0.258864
 H    -5.623754     2.351096     0.716755
 H    -6.033305     3.426746    -0.639244
 C    -1.042471    -3.171955    -1.705719
 H    -1.768993    -3.919761    -2.065818
 H    -0.683311    -2.598580    -2.576477
 C     0.119757    -3.841661    -1.003990
 H     0.618371    -4.503561    -1.734782
 H     0.848499    -3.063688    -0.723484
 C    -0.265767    -4.629472     0.238987
 H    -1.054763    -5.360687    -0.013176
 H    -0.714159    -3.933476     0.966801
 C     0.916466    -5.345864     0.871175
 H     1.353387    -6.086345     0.181742
 H     1.716819    -4.635383     1.133608
 H     0.627712    -5.877897     1.790447
