  98
scf done:    -2760.440040
 C    -1.001370     0.058399    -3.816029
 H    -1.339878    -0.872941    -4.280338
 H    -1.763845     0.841457    -3.785589
 C     0.373355     0.396636    -3.860705
 H     1.076256    -0.274739    -4.363102
 H     0.684220     1.444707    -3.864903
 H    -0.501701     1.302666    -1.699441
Rh    -0.137894    -0.235473    -1.863403
 C    -2.039965     1.091858     0.703117
 C    -3.593857    -0.445038    -1.167873
 C    -2.081425    -1.782151     0.788431
 C     2.165502    -1.041478     0.669741
 C     3.272121     0.525715    -1.434973
 C     1.647211     1.773015     0.546946
 P     1.692051     0.273453    -0.519447
 P    -1.926414    -0.372034    -0.388771
 C     0.311864    -2.058846    -2.186528
 O     0.613001    -3.139843    -2.436423
 C    -2.377187     2.333786     0.138220
 H    -2.678394     2.386154    -0.911239
 C    -1.647775     1.065073     2.040129
 H    -1.408032     0.112196     2.516955
 C    -2.321408     3.496840     0.884193
 H    -2.590807     4.460986     0.449989
 C    -1.546505     2.236194     2.794076
 H    -1.202844     2.174573     3.826362
 C    -1.872159     3.462513     2.212926
 O    -1.773331     4.654318     2.838486
 C    -1.310443     4.680058     4.160330
 H    -0.294140     4.257545     4.243348
 H    -1.286482     5.734050     4.465178
 H    -1.983641     4.127782     4.839479
 C    -3.744365    -1.275207    -2.282634
 H    -2.870860    -1.794203    -2.683711
 C    -4.710386     0.231721    -0.665243
 H    -4.601835     0.882448     0.206623
 C    -4.996504    -1.428720    -2.871396
 H    -5.112304    -2.083918    -3.738304
 C    -5.971147     0.099776    -1.256812
 C    -7.152895     0.860559    -0.727705
 H    -8.054234     0.230188    -0.690994
 H    -6.963286     1.246119     0.284078
 H    -7.387341     1.724293    -1.371896
 C    -6.099350    -0.744628    -2.365777
 H    -7.077637    -0.865086    -2.840006
 C    -3.153996    -1.863181     1.686586
 H    -3.907886    -1.073142     1.715280
 C    -1.143189    -2.813580     0.756422
 H    -0.303347    -2.744047     0.064586
 C    -3.262688    -2.959242     2.536156
 H    -4.099543    -3.022732     3.236276
 C    -1.244669    -3.930542     1.594609
 C    -0.216957    -5.023276     1.544505
 H    -0.689842    -6.017215     1.552787
 H     0.402481    -4.942663     0.640226
 H     0.460709    -4.971711     2.412212
 C    -2.318378    -3.985232     2.487951
 H    -2.421661    -4.847498     3.153180
 C     1.391442    -1.223205     1.827576
 H     0.573548    -0.533073     2.041458
 C     3.193397    -1.950610     0.419303
 H     3.820721    -1.834309    -0.467075
 C     1.641776    -2.264124     2.703922
 H     1.035750    -2.406620     3.600495
 C     3.442049    -3.020830     1.281914
 H     4.247632    -3.715751     1.044004
 C     2.663850    -3.183697     2.430872
 O     2.806996    -4.193707     3.315724
 C     3.790504    -5.161440     3.077085
 H     4.803381    -4.721946     3.062667
 H     3.729131    -5.883301     3.901307
 H     3.620410    -5.691818     2.123435
 C     3.516180    -0.257462    -2.568708
 H     2.753496    -0.959450    -2.910508
 C     4.242330     1.444066    -1.021857
 H     4.058699     2.063649    -0.140896
 C     4.721561    -0.134560    -3.254793
 H     4.911624    -0.756149    -4.133273
 C     5.448775     1.593905    -1.714526
 C     6.456982     2.618257    -1.279976
 H     6.315163     3.565438    -1.826962
 H     6.364474     2.843579    -0.207850
 H     7.485791     2.280825    -1.473980
 C     5.678796     0.785332    -2.833169
 H     6.618827     0.882608    -3.383813
 C     2.290751     1.830115     1.788702
 H     2.790629     0.946999     2.190479
 C     1.031161     2.925323     0.047827
 H     0.515709     2.869025    -0.914822
 C     2.304041     3.022772     2.510143
 H     2.805967     3.061615     3.480519
 C     1.054700     4.132932     0.750284
 C     0.403946     5.368120     0.201778
 H    -0.095350     5.166650    -0.755570
 H    -0.347134     5.754140     0.908404
 H     1.145265     6.166490     0.036697
 C     1.696001     4.163556     1.994831
 H     1.719443     5.098151     2.563107
