  86
scf done:    -4441.178944
 C    -0.790753     0.110910    -3.935318
 H    -1.361249    -0.736337    -4.327985
 H    -1.324080     1.064150    -3.985591
 C     0.625577     0.082443    -4.006593
 H     1.122768    -0.786808    -4.449091
 H     1.178912     1.019434    -4.116352
 H     0.058118     1.348162    -1.944242
Rh    -0.004376    -0.235486    -1.966507
 C    -1.582182     1.840385     0.337392
 C    -3.433539     0.393368    -1.308077
 C    -2.222373    -0.936272     0.830394
 C     1.525478    -1.262149     1.012241
 C     3.398933    -0.886130    -1.120349
 C     2.351900     1.362287     0.257593
 P     1.799383    -0.233543    -0.481282
 P    -1.776586     0.235567    -0.519815
 C    -0.005999    -2.131348    -2.180349
 O     0.043640    -3.261585    -2.379567
 C    -1.696458     3.019517    -0.421041
 H    -2.011247     2.962953    -1.466543
 C    -1.157198     1.953127     1.660883
 H    -1.057275     1.058344     2.276896
 C    -1.395701     4.253871     0.126074
 H    -1.480360     5.170802    -0.460353
 C    -0.833668     3.190248     2.221844
 H    -0.481543     3.230940     3.252593
 C    -0.941279     4.350643     1.451592
 O    -0.618032     5.583896     1.877348
 C    -0.086737     5.738432     3.166900
 H     0.862135     5.188149     3.283929
 H     0.110933     6.809669     3.296379
 H    -0.799022     5.410007     3.943752
 C    -4.413463     1.288590    -0.864295
 H    -4.192694     1.984882    -0.051874
 C    -3.745152    -0.484662    -2.351451
 H    -2.980104    -1.178195    -2.707847
 C    -5.674784     1.313833    -1.452635
 H    -6.437586     2.016209    -1.112667
 C    -5.005269    -0.479352    -2.940536
 H    -5.247861    -1.165337    -3.753602
 C    -5.963996     0.426348    -2.488260
Cl    -7.530874     0.453239    -3.224035
 C    -3.064925    -0.581321     1.893775
 H    -3.459350     0.434723     1.966348
 C    -1.771780    -2.253746     0.748796
 H    -1.120461    -2.548860    -0.072710
 C    -3.407779    -1.506446     2.873619
 H    -4.049013    -1.225268     3.710502
 C    -2.130848    -3.199203     1.704490
 H    -1.777860    -4.227805     1.625163
 C    -2.930773    -2.814535     2.774625
Cl    -3.337930    -3.972614     3.996988
 C     1.117520    -0.694530     2.228417
 H     1.089764     0.390894     2.334530
 C     1.566750    -2.657604     0.922429
 H     1.874634    -3.136329    -0.011263
 C     0.742982    -1.487280     3.301558
 H     0.408000    -1.048515     4.243210
 C     1.213515    -3.467350     2.000391
 H     1.260223    -4.551030     1.889132
 C     0.776690    -2.883399     3.196344
 O     0.367940    -3.569386     4.277291
 C     0.321379    -4.968051     4.222412
 H     1.321166    -5.406312     4.056650
 H    -0.061203    -5.306708     5.192968
 H    -0.363049    -5.323659     3.433291
 C     4.337783    -1.550912    -0.321540
 H     4.116640    -1.760069     0.727620
 C     3.704422    -0.654151    -2.465532
 H     2.964891    -0.155009    -3.094454
 C     5.554104    -1.972270    -0.850624
 H     6.283407    -2.496201    -0.230629
 C     4.920276    -1.061387    -3.005743
 H     5.156974    -0.878774    -4.055106
 C     5.839895    -1.721241    -2.192161
Cl     7.350893    -2.244115    -2.855375
 C     3.351237     1.387656     1.241853
 H     3.823813     0.459288     1.569551
 C     1.779054     2.568026    -0.146108
 H     1.001889     2.553149    -0.913187
 C     3.744788     2.582866     1.830371
 H     4.514141     2.601586     2.603827
 C     2.166096     3.776975     0.429094
 H     1.699956     4.714962     0.124911
 C     3.138276     3.772502     1.423000
Cl     3.596157     5.263719     2.182310
