  78
scf done:    -3293.342731
 C    -0.739707    -3.878783    -0.889212
 H    -1.143244    -4.470726    -0.061823
 H    -1.429200    -3.754500    -1.728669
 C     0.658932    -3.850379    -1.101245
 H     1.314741    -4.427912    -0.442745
 H     1.057792    -3.712067    -2.109806
 H    -0.230604    -1.588267    -1.777022
Rh     0.015415    -1.965100    -0.249906
 C    -1.723669     1.034118    -0.848778
 C    -3.381153    -1.303083    -0.737858
 C    -2.392297    -0.119604     1.659606
 C     1.790801     0.775702     0.958322
 C     3.507596    -1.272738     0.013265
 C     2.184124     0.390238    -1.886128
 P     1.854250    -0.531472    -0.330240
 P    -1.842089    -0.606599    -0.023987
 C     0.210030    -2.477769     1.578433
 O     0.303813    -2.793382     2.677136
 C    -2.171999     2.216531    -0.247948
 H    -2.670473     2.182109     0.722765
 C    -1.090324     1.113293    -2.095349
 H    -0.726682     0.199366    -2.568147
 C    -1.960302     3.450885    -0.858255
 H    -2.295413     4.374082    -0.382370
 C    -0.874768     2.337206    -2.718741
 H    -0.352588     2.389992    -3.675297
 C    -1.299284     3.504909    -2.085079
Cl    -0.994943     5.039250    -2.827592
 C    -3.778454    -2.576706    -0.308369
 C    -4.163019    -0.625973    -1.678304
 C    -5.716973    -2.477113    -1.745014
 C    -5.322884    -1.215292    -2.183290
 C    -4.943511    -3.155340    -0.801138
 H    -3.162528    -3.112636     0.417852
 H    -5.245912    -4.146200    -0.453826
 H    -6.626659    -2.935758    -2.139923
 H    -5.923488    -0.678987    -2.922037
 H    -3.867498     0.368738    -2.018636
 C    -1.413635     0.227801     2.598698
 C    -3.743487    -0.019788     2.013869
 C    -3.123622     0.788176     4.207068
 C    -4.104460     0.425575     3.284806
 C    -1.776423     0.690908     3.860673
 H    -0.358127     0.145622     2.334110
 H    -1.000466     0.981475     4.572490
 H    -3.409714     1.144810     5.199485
 H    -5.161545     0.494678     3.553022
 H    -4.517745    -0.288252     1.291784
 C     2.313485     0.512566     2.231815
 H     2.896938    -0.394788     2.405395
 C     1.048265     1.949443     0.769224
 H     0.619724     2.178293    -0.207130
 C     2.084045     1.382011     3.294338
 H     2.481603     1.166297     4.287353
 C     0.820003     2.830495     1.821247
 H     0.227703     3.733756     1.668173
 C     1.328364     2.534189     3.084214
Cl     0.994121     3.592260     4.414846
 C     3.585468    -2.566024     0.535869
 C     4.690410    -0.553172    -0.203366
 C     5.992899    -2.407591     0.634540
 C     5.924321    -1.117973     0.104574
 C     4.822207    -3.129933     0.850366
 H     2.663557    -3.129677     0.687340
 H     4.867668    -4.141487     1.260744
 H     6.962856    -2.849580     0.875088
 H     6.840020    -0.548318    -0.071336
 H     4.649036     0.455170    -0.620827
 C     1.927734    -0.269626    -3.094252
 C     2.700298     1.691348    -1.922747
 C     2.657330     1.667716    -4.339013
 C     2.925934     2.328658    -3.142018
 C     2.166745     0.361875    -4.311889
 H     1.514331    -1.281065    -3.067455
 H     1.959538    -0.166285    -5.245691
 H     2.831481     2.169549    -5.293870
 H     3.311385     3.350876    -3.153730
 H     2.916772     2.223116    -0.994101
