  96
scf done:    -2610.115950
 C    -0.744088     1.182016    -3.578034
 H    -1.159142     0.447236    -4.275136
 H    -1.403645     2.030711    -3.377244
 C     0.660147     1.327900    -3.479084
 H     1.317256     0.710313    -4.098448
 H     1.091388     2.295887    -3.209158
 H    -0.286582     1.764262    -1.173027
Rh    -0.076307     0.287718    -1.731772
 C    -1.804775     0.558884     1.325408
 C    -3.455177     0.816559    -1.004130
 C    -2.541925    -1.751844    -0.171152
 C     1.833135    -1.250105     0.821645
 C     3.412730    -0.004557    -1.187575
 C     2.122290     1.610860     0.771852
 P     1.788345     0.177335    -0.333462
 P    -1.941564    -0.031984    -0.407769
 C     0.035305    -1.467322    -2.467463
 O     0.065926    -2.516613    -2.932377
 C    -2.251095    -0.190237     2.418392
 H    -2.762334    -1.141317     2.255822
 C    -1.151913     1.774269     1.570856
 H    -0.785260     2.361644     0.727305
 C    -2.013764     0.250768     3.720259
 H    -2.353690    -0.359371     4.562029
 C    -0.923581     2.211085     2.869056
 H    -0.383261     3.148409     3.028374
 C    -1.336017     1.448218     3.970530
 C    -1.045305     1.910115     5.367877
 H    -1.544477     2.868783     5.581988
 H    -1.383160     1.179210     6.115705
 H     0.034886     2.071323     5.511372
 C    -3.839215     0.607805    -2.335326
 H    -3.226770    -0.028623    -2.978053
 C    -4.232309     1.640807    -0.188641
 H    -3.938900     1.799023     0.852449
 C    -4.992614     1.208876    -2.824989
 H    -5.297592     1.037675    -3.860298
 C    -5.386718     2.269119    -0.676095
 C    -6.184628     3.181489     0.210231
 H    -5.703922     4.170640     0.291134
 H    -7.200168     3.338703    -0.180220
 H    -6.267315     2.778663     1.230788
 C    -5.758388     2.036903    -2.002842
 H    -6.660093     2.511889    -2.399499
 C    -3.901018    -2.081241    -0.151052
 H    -4.656048    -1.305969    -0.296761
 C    -1.588674    -2.758804     0.019224
 H    -0.527031    -2.498191     0.010128
 C    -4.287020    -3.404837     0.055822
 H    -5.348924    -3.663047     0.070435
 C    -1.962602    -4.089374     0.223621
 C    -0.924540    -5.162409     0.373660
 H    -0.789235    -5.707114    -0.575455
 H     0.049054    -4.736046     0.650560
 H    -1.214148    -5.902096     1.135457
 C    -3.328985    -4.397645     0.240975
 H    -3.644139    -5.433576     0.396205
 C     2.565533    -2.405803     0.534589
 H     3.210541    -2.438999    -0.346322
 C     1.020154    -1.244296     1.965362
 H     0.432901    -0.359395     2.213921
 C     2.486180    -3.520920     1.368793
 H     3.070560    -4.412554     1.124452
 C     0.951557    -2.356922     2.793779
 H     0.307429    -2.320377     3.676971
 C     1.681196    -3.519982     2.511823
 C     1.575320    -4.726076     3.397742
 H     1.695696    -4.457326     4.458418
 H     0.586353    -5.202951     3.295813
 H     2.335420    -5.479528     3.147740
 C     3.458481    -0.616755    -2.442632
 H     2.530233    -0.930930    -2.921774
 C     4.608273     0.414546    -0.591382
 H     4.582026     0.900503     0.386943
 C     4.683941    -0.820066    -3.075578
 H     4.714351    -1.306426    -4.053645
 C     5.842501     0.231668    -1.220254
 C     7.112687     0.714234    -0.581329
 H     6.956181     0.979249     0.473691
 H     7.902799    -0.050663    -0.629009
 H     7.497627     1.610237    -1.095608
 C     5.864049    -0.398246    -2.471567
 H     6.820402    -0.554675    -2.978967
 C     2.648656     1.481884     2.062411
 H     2.868884     0.494305     2.471397
 C     1.860689     2.888855     0.270201
 H     1.433658     2.979635    -0.732847
 C     2.877691     2.618602     2.834514
 H     3.275225     2.513566     3.847212
 C     2.096350     4.039760     1.028726
 C     1.821859     5.399090     0.453687
 H     2.643967     5.718888    -0.207812
 H     0.902488     5.400311    -0.150431
 H     1.717560     6.158744     1.241443
 C     2.600130     3.885464     2.325729
 H     2.776619     4.770701     2.943342
