  94
scf done:    -3030.710013
 C     0.657312    -0.418931    -3.859118
 H     1.561645     0.171368    -4.021109
 H     0.754123    -1.468766    -4.150199
 C    -0.607984     0.201320    -3.877135
 H    -0.685318     1.280703    -4.029372
 H    -1.486063    -0.362252    -4.205843
 H     0.551150     1.238759    -1.837958
Rh    -0.062319    -0.226551    -1.809664
 C    -1.442531     2.447606     0.071320
 O    -3.238612     1.003355    -1.050814
 O    -1.909372    -0.171303     0.829255
 C     1.599117    -2.300994     0.422826
 O     3.242186    -0.885339    -0.983245
 O     1.900894     0.396271     0.780775
 P     1.678493    -0.708028    -0.451787
 P    -1.671816     0.750569    -0.544981
 C    -0.777693    -2.017290    -1.789223
 O    -1.181652    -3.085800    -1.772102
 C    -0.205674     2.759861     0.648775
 H     0.580593     2.002555     0.689540
 C    -2.444536     3.423061     0.016274
 H    -3.406636     3.180728    -0.434024
 C     0.023557     4.021045     1.187250
 H     0.978521     4.279488     1.647972
 C    -2.218962     4.692792     0.539695
 H    -2.984087     5.470361     0.504258
 C    -0.988740     4.972720     1.123159
 F    -0.772853     6.183169     1.629280
 C    -4.162295     0.057078    -1.413426
 C    -3.870716    -0.928351    -2.353141
 H    -2.886755    -0.933189    -2.817872
 C    -5.433875     0.151723    -0.822758
 C    -5.761383     1.263651     0.124560
 H    -5.024507     1.337068     0.936794
 H    -5.765121     2.234357    -0.397681
 H    -6.753537     1.116168     0.571210
 C    -4.831412    -1.882633    -2.681144
 H    -4.591276    -2.661520    -3.408153
 C    -6.377719    -0.817735    -1.172939
 H    -7.369147    -0.767737    -0.714665
 C    -6.086388    -1.835098    -2.080937
 H    -6.844773    -2.581653    -2.326437
 C    -2.881394    -0.031218     1.791181
 C    -2.931664     1.095690     2.610854
 H    -2.196298     1.888866     2.479828
 C    -3.772927    -1.104291     1.959457
 C    -3.662453    -2.336426     1.115308
 H    -2.653665    -2.772514     1.170732
 H    -4.386164    -3.095953     1.439290
 H    -3.850855    -2.119858     0.053334
 C    -3.919550     1.192805     3.589158
 H    -3.962458     2.079445     4.225628
 C    -4.750626    -0.977072     2.950442
 H    -5.458844    -1.797798     3.092636
 C    -4.838092     0.159301     3.753198
 H    -5.616301     0.229395     4.516367
 C     2.624464    -3.250679     0.400159
 H     3.529819    -3.049156    -0.172329
 C     0.434805    -2.552733     1.162087
 H    -0.373179    -1.814497     1.171820
 C     2.495557    -4.439144     1.113757
 H     3.280062    -5.197961     1.109393
 C     0.304426    -3.729594     1.890192
 H    -0.588781    -3.942651     2.480309
 C     1.339499    -4.659187     1.853310
 F     1.217034    -5.789857     2.541515
 C     4.076534     0.082690    -1.481900
 C     3.634146     1.088863    -2.336541
 H     2.575628     1.143732    -2.588618
 C     5.422897    -0.007006    -1.090554
 C     5.867321    -1.083289    -0.150187
 H     5.266221    -1.074848     0.772166
 H     5.751363    -2.080973    -0.603516
 H     6.923228    -0.954088     0.122340
 C     4.541473     2.023928    -2.830863
 H     4.189076     2.812444    -3.499649
 C     6.308487     0.945355    -1.600593
 H     7.359592     0.891662    -1.304226
 C     5.882794     1.953708    -2.465672
 H     6.599180     2.683761    -2.848650
 C     2.961398     0.419101     1.662805
 C     3.106517    -0.587372     2.621341
 H     2.374028    -1.391635     2.668321
 C     3.846587     1.507053     1.610669
 C     3.669806     2.643437     0.649559
 H     4.531064     2.718756    -0.031464
 H     2.770921     2.525142     0.034895
 H     3.596351     3.597769     1.194892
 C     4.176024    -0.552041     3.510285
 H     4.286370    -1.345321     4.252935
 C     4.913131     1.513038     2.518523
 H     5.617967     2.348563     2.485120
 C     5.092164     0.496842     3.451327
 H     5.937442     0.531162     4.142255
