  74
scf done:    -2120.677032
 C    -0.419783    -3.650195    -1.374410
 H    -1.015372    -4.327074    -0.753418
 H    -0.854522    -3.457293    -2.359467
 C     0.992985    -3.623166    -1.211292
 H     1.460189    -4.274826    -0.466037
 H     1.628916    -3.409106    -2.074710
 H     0.315709    -1.279885    -1.864587
Rh     0.138550    -1.832918    -0.377701
 C    -1.445621     1.118374    -1.360276
 C    -3.241554    -1.091647    -1.112925
 C    -2.233669     0.205100     1.276966
 C     1.361316     0.830666     1.501365
 C     3.442397    -0.947244     0.707754
 C     2.255582     0.831318    -1.253706
 P     1.811101    -0.303214     0.125512
 P    -1.691857    -0.411650    -0.374076
 C    -0.097460    -2.550333     1.367351
 O    -0.261896    -2.979608     2.421758
 C    -1.403304     2.399435    -0.798644
 H    -1.601326     2.543497     0.263424
 C    -1.170969     0.987359    -2.730758
 H    -1.162079    -0.005903    -3.186143
 C    -1.076498     3.516069    -1.568556
 H    -1.030679     4.516178    -1.133190
 C    -0.859104     2.091105    -3.515656
 H    -0.636589     1.992877    -4.579649
 C    -0.803576     3.346413    -2.918358
 F    -0.475495     4.405075    -3.656361
 H    -4.006678    -0.298792    -1.166294
 H    -2.984645    -1.363352    -2.150204
 C    -3.755719    -2.316977    -0.369408
 H    -4.047760    -2.033096     0.656485
 H    -2.925217    -3.033353    -0.260852
 C    -4.932590    -2.980088    -1.067415
 H    -5.782384    -2.286672    -1.173388
 H    -4.653882    -3.318278    -2.078229
 H    -5.287097    -3.859373    -0.508434
 H    -2.231575    -0.683022     1.930461
 H    -1.400242     0.823617     1.649662
 C    -3.560793     0.944397     1.396334
 H    -4.390019     0.250714     1.180217
 H    -3.631108     1.735324     0.631613
 C    -3.747706     1.548998     2.780629
 H    -3.720911     0.771057     3.560203
 H    -2.945623     2.268151     3.014380
 H    -4.709463     2.076901     2.867302
 C     1.057326     2.183435     1.307774
 H     1.190002     2.644021     0.328754
 C     1.164269     0.286758     2.780957
 H     1.372789    -0.769750     2.964876
 C     0.545815     2.965558     2.343293
 H     0.295929     4.017790     2.193646
 C     0.663989     1.054394     3.826487
 H     0.496874     0.630374     4.818164
 C     0.345749     2.387431     3.588634
 F    -0.168741     3.121428     4.573881
 H     4.086662    -0.101131     1.001074
 H     3.233096    -1.522545     1.625018
 C     4.127002    -1.841987    -0.316067
 H     4.347632    -1.260158    -1.227837
 H     3.418502    -2.626950    -0.624097
 C     5.409840    -2.465163     0.211332
 H     6.141404    -1.695565     0.506007
 H     5.212745    -3.089250     1.097696
 H     5.886087    -3.105413    -0.546660
 H     2.397752     0.172191    -2.125150
 H     1.333220     1.391429    -1.482299
 C     3.446076     1.765259    -1.078797
 H     4.375000     1.172752    -1.035684
 H     3.384741     2.289871    -0.110876
 C     3.540534     2.782035    -2.207285
 H     3.632872     2.283498    -3.185304
 H     2.638878     3.414773    -2.249711
 H     4.410825     3.444538    -2.085422
