  88
scf done:    -4591.640733
 C     0.549627    -3.836458    -0.896104
 H    -0.192325    -4.508311    -0.456295
 H     0.533126    -3.787004    -1.988025
 C     1.742775    -3.557206    -0.197169
 H     1.923264    -4.015453     0.779269
 H     2.648174    -3.288709    -0.746019
 H     1.135166    -1.391206    -1.386702
Rh     0.417031    -1.837106    -0.045789
 C    -1.297900    -0.236507    -2.717008
 O    -2.794594    -1.733406    -1.176860
 O    -1.879292     0.462032    -0.155969
 C     1.131770     0.775642     2.290624
 O     3.207225    -0.276103     1.126034
 O     1.645577     1.152247    -0.340856
 P     1.583663    -0.106957     0.774473
 P    -1.366225    -0.875465    -1.024037
 C    -0.380020    -2.461222     1.601596
 O    -0.812010    -2.852246     2.584120
 C    -0.353981     0.762916    -2.989969
 H     0.305949     1.119523    -2.194517
 C    -2.102438    -0.722549    -3.749271
 H    -2.831179    -1.508872    -3.543966
 C    -0.246011     1.282932    -4.272800
 H     0.487914     2.068948    -4.471465
 C    -1.975324    -0.200090    -5.034633
 H    -2.609511    -0.588126    -5.836328
 C    -1.054545     0.813147    -5.318162
 C    -0.926260     1.388104    -6.697453
 H     0.108234     1.308645    -7.066618
 H    -1.583057     0.874748    -7.413089
 H    -1.189179     2.458057    -6.704192
 C    -3.220802    -2.519238    -0.138474
 C    -3.802945    -1.939754     0.989156
 H    -3.921203    -0.856068     1.037999
 C    -3.069687    -3.902058    -0.223807
 H    -2.609974    -4.330150    -1.115720
 C    -4.227187    -2.746874     2.040256
 H    -4.679004    -2.308452     2.931111
 C    -3.494560    -4.711882     0.824356
 H    -3.378184    -5.795521     0.774499
 C    -4.065822    -4.128765     1.955307
Cl    -4.581027    -5.133535     3.267709
 C    -2.826237     1.400000    -0.446555
 C    -2.736742     2.601492     0.263286
 H    -1.935496     2.721931     0.995168
 C    -3.867255     1.204605    -1.356891
 H    -3.962792     0.259258    -1.888073
 C    -3.663474     3.614630     0.049057
 H    -3.597199     4.554592     0.599225
 C    -4.792505     2.222824    -1.575214
 H    -5.605598     2.080894    -2.288807
 C    -4.687401     3.424187    -0.878835
Cl    -5.841353     4.686729    -1.156957
 C     2.068969     1.430698     3.100175
 H     3.131151     1.359953     2.862654
 C    -0.226531     0.861306     2.611461
 H    -0.963599     0.361292     1.979279
 C     1.644225     2.168150     4.198092
 H     2.385119     2.680327     4.818218
 C    -0.640484     1.605774     3.712916
 H    -1.706494     1.668271     3.948247
 C     0.284477     2.272888     4.523137
 C    -0.156147     3.057276     5.722838
 H    -1.232411     3.276730     5.690234
 H     0.040247     2.494861     6.650636
 H     0.388830     4.009905     5.800695
 C     4.053875    -1.014659     0.349860
 C     4.893003    -1.926151     0.990191
 H     4.829624    -2.028115     2.074820
 C     4.104857    -0.865184    -1.037814
 H     3.443044    -0.153311    -1.532814
 C     5.780650    -2.696767     0.247674
 H     6.438242    -3.416578     0.737368
 C     4.986579    -1.642741    -1.783719
 H     5.028839    -1.543045    -2.869353
 C     5.819423    -2.555966    -1.139758
Cl     6.915310    -3.523615    -2.069864
 C     2.046399     2.421602    -0.019901
 C     3.396155     2.730106     0.152489
 H     4.148491     1.947608     0.045825
 C     1.075229     3.414661     0.102677
 H     0.028134     3.149508    -0.049336
 C     3.771275     4.033126     0.468197
 H     4.822382     4.289448     0.609527
 C     1.446762     4.717585     0.415148
 H     0.695660     5.502499     0.516009
 C     2.795235     5.019288     0.603754
Cl     3.262966     6.638928     1.005022
