  90
scf done:    -3450.483864
 C     0.930523     0.160215     3.817885
 H     1.270108    -0.753706     4.314633
 H     1.689499     0.945380     3.764658
 C    -0.445195     0.492695     3.843235
 H    -1.147164    -0.165830     4.363462
 H    -0.762226     1.538303     3.808919
 H     0.438594     1.329251     1.658123
Rh     0.080030    -0.203234     1.869450
 C     2.007568     1.060275    -0.712223
 C     3.546922    -0.427923     1.204524
 C     2.045509    -1.817827    -0.723562
 C    -2.210855    -1.094741    -0.642437
 C    -3.325883     0.577157     1.372798
 C    -1.644339     1.716702    -0.630798
 P    -1.736494     0.267888     0.496985
 P     1.882711    -0.380306     0.417738
 C    -0.379094    -2.013658     2.258309
 O    -0.691974    -3.079886     2.550197
 C     1.625007     0.996720    -2.054395
 H     1.361053     0.036493    -2.501956
 C     2.370540     2.305271    -0.178880
 H     2.656078     2.381064     0.873362
 C     1.578391     2.143732    -2.844574
 H     1.252667     2.093154    -3.884306
 C     2.367647     3.450500    -0.964156
 H     2.663231     4.414563    -0.548024
 C     1.952698     3.363945    -2.293223
Cl     1.884658     4.799773    -3.263173
 C     3.685672    -1.209483     2.354682
 H     2.805989    -1.700723     2.776302
 C     4.672975     0.212019     0.673679
 H     4.576319     0.825728    -0.225755
 C     4.935171    -1.349694     2.953672
 H     5.040931    -1.964756     3.850656
 C     5.930616     0.091347     1.272527
 C     7.127858     0.797671     0.704526
 H     7.953047     0.094377     0.511778
 H     6.885934     1.303867    -0.240486
 H     7.509309     1.558649     1.404392
 C     6.046142    -0.702035     2.420728
 H     7.021565    -0.810353     2.903655
 C     3.097775    -1.906479    -1.644459
 H     3.835662    -1.104331    -1.718071
 C     1.131568    -2.867960    -0.634007
 H     0.308853    -2.794387     0.077489
 C     3.206505    -3.026484    -2.462894
 H     4.025697    -3.094614    -3.183058
 C     1.234940    -4.009215    -1.437735
 C     0.238395    -5.124538    -1.318085
 H     0.741282    -6.096551    -1.197947
 H    -0.426000    -4.973486    -0.456081
 H    -0.397675    -5.195182    -2.214927
 C     2.285263    -4.068878    -2.358901
 H     2.388660    -4.948388    -3.001018
 C    -3.284878    -1.952809    -0.384052
 H    -3.934292    -1.773004     0.475228
 C    -1.404881    -1.351553    -1.759240
 H    -0.555090    -0.701411    -1.971695
 C    -3.545111    -3.042459    -1.213352
 H    -4.379242    -3.714389    -1.005196
 C    -1.664030    -2.421046    -2.606789
 H    -1.028917    -2.612959    -3.472881
 C    -2.733390    -3.268693    -2.321832
Cl    -3.043261    -4.627916    -3.353541
 C    -3.591854    -0.138508     2.544940
 H    -2.837903    -0.821903     2.939935
 C    -4.284966     1.471440     0.886355
 H    -4.081704     2.037414    -0.026018
 C    -4.809817     0.027172     3.199810
 H    -5.018634    -0.541046     4.109533
 C    -5.503970     1.662727     1.545237
 C    -6.504370     2.657565     1.031882
 H    -6.413042     3.617717     1.566645
 H    -6.354960     2.862610    -0.037677
 H    -7.535968     2.302968     1.174054
 C    -5.756055     0.921608     2.705777
 H    -6.706262     1.052011     3.231464
 C    -2.213223     1.724624    -1.909268
 H    -2.696932     0.829858    -2.304699
 C    -1.054500     2.887828    -0.143047
 H    -0.599967     2.872425     0.851383
 C    -2.165382     2.883630    -2.682739
 H    -2.597871     2.881246    -3.686439
 C    -1.025946     4.063771    -0.895964
 C    -0.420464     5.321179    -0.346075
 H    -1.196805     6.078453    -0.149172
 H     0.108828     5.131736     0.597866
 H     0.290311     5.761376    -1.062166
 C    -1.578634     4.041610    -2.182803
 H    -1.540622     4.943199    -2.799953
