  88
scf done:    -4591.635633
 C    -0.399001    -1.353292     3.734988
 H    -0.386313    -2.443061     3.828368
 H     0.361330    -0.847541     4.334785
 C    -1.598707    -0.688741     3.403733
 H    -2.510615    -1.269511     3.239954
 H    -1.766270     0.342603     3.724480
 H     0.273422     0.641278     2.267737
Rh    -0.311711    -0.703127     1.655738
 C     3.266101    -0.943898     1.988756
 O     2.184187    -2.138646    -0.130467
 O     2.169215     0.452470    -0.053918
 C    -0.538076     1.757081    -1.000407
 O    -2.580056     0.165792    -0.722551
 O    -2.198369     1.897814     1.171345
 P    -1.379974     0.757096     0.279690
 P     1.807472    -0.876926     0.891481
 C    -1.038381    -2.403580     1.104187
 O    -1.475256    -3.442040     0.917430
 C     3.046474    -0.285311     3.207585
 H     2.051130     0.119020     3.405553
 C     4.543681    -1.482188     1.700774
 C     4.908976    -2.200270     0.434318
 H     4.664915    -1.608211    -0.457820
 H     4.361983    -3.148400     0.339411
 H     5.986125    -2.413846     0.421919
 C     4.059726    -0.129732     4.146649
 H     3.862716     0.393004     5.085023
 C     5.541536    -1.322410     2.671879
 H     6.533795    -1.731248     2.464364
 C     5.317651    -0.657703     3.873667
 H     6.130463    -0.554809     4.596703
 C     1.295582    -2.600491    -1.057100
 C     0.631732    -1.733661    -1.927205
 H     0.816542    -0.660024    -1.876412
 C     1.057402    -3.973119    -1.116365
 H     1.580250    -4.631668    -0.420864
 C    -0.283201    -2.240979    -2.842700
 H    -0.803776    -1.570327    -3.528224
 C     0.132726    -4.481236    -2.023038
 H    -0.083099    -5.549946    -2.057419
 C    -0.544110    -3.608821    -2.873681
Cl    -1.751361    -4.220647    -3.959224
 C     3.391277     0.791560    -0.558691
 C     3.696929     0.481912    -1.884632
 H     2.964500    -0.049283    -2.493814
 C     4.307154     1.489594     0.229208
 H     4.051138     1.731663     1.261605
 C     4.924774     0.856269    -2.420965
 H     5.175184     0.620407    -3.456328
 C     5.538510     1.860497    -0.302119
 H     6.266005     2.400051     0.306036
 C     5.843755     1.538245    -1.623852
Cl     7.377699     1.997669    -2.286112
 C    -0.717677     1.414231    -2.347479
 H    -1.458803     0.657204    -2.604714
 C     0.402678     2.750379    -0.649677
 C     0.632994     3.195622     0.762134
 H     1.561161     3.778510     0.834462
 H     0.706833     2.341605     1.450014
 H    -0.194020     3.832536     1.113495
 C     0.027333     2.025101    -3.351485
 H    -0.130237     1.744208    -4.395398
 C     1.140425     3.347734    -1.677308
 H     1.879525     4.108528    -1.413698
 C     0.968045     2.992869    -3.011519
 H     1.570371     3.475257    -3.784837
 C    -3.363655    -0.905012    -0.394251
 C    -3.468077    -1.950460    -1.309681
 H    -2.920839    -1.899413    -2.250302
 C    -4.056897    -0.954513     0.815594
 H    -3.981121    -0.120579     1.515254
 C    -4.243559    -3.064206    -1.010083
 H    -4.307977    -3.894518    -1.714585
 C    -4.832017    -2.069640     1.120358
 H    -5.373457    -2.127219     2.065868
 C    -4.915221    -3.122877     0.210358
Cl    -5.863961    -4.518347     0.600998
 C    -2.806348     3.038041     0.726928
 C    -2.855203     4.105515     1.626786
 H    -2.409796     3.978527     2.615256
 C    -3.382746     3.163422    -0.538763
 H    -3.367932     2.323747    -1.232252
 C    -3.464935     5.300912     1.264235
 H    -3.506808     6.138880     1.961716
 C    -3.987820     4.363142    -0.904391
 H    -4.438417     4.472531    -1.891991
 C    -4.024580     5.427608    -0.006906
Cl    -4.778416     6.918355    -0.468772
