  90
scf done:    -3299.138239
 C     1.812604    -2.504611    -2.465821
 H     2.275980    -2.121291    -3.379473
 H     2.522455    -2.779841    -1.680470
 C     0.549844    -3.136006    -2.530070
 H     0.049202    -3.239163    -3.497449
 H     0.284650    -3.906418    -1.801926
 H     0.593264    -1.916097    -0.306629
Rh     0.320738    -1.145889    -1.669245
 C     3.162625    -0.430979     0.254270
 O     2.552974     1.479303    -1.373382
 O     0.960231     1.076342     0.629341
 C    -2.354086     0.809803    -0.385361
 O    -3.066546    -1.414637    -1.519104
 O    -2.018117    -1.581856     0.719767
 P    -1.735005    -0.870588    -0.741479
 P     1.716610     0.284366    -0.603324
 C    -0.114434    -0.366417    -3.361362
 O    -0.411837     0.036864    -4.393010
 C     2.942834    -1.418666     1.222395
 H     1.923539    -1.748565     1.437526
 C     4.473696    -0.034633    -0.025067
 H     4.649145     0.734822    -0.778165
 C     4.005707    -1.993783     1.909164
 H     3.836627    -2.761323     2.665934
 C     5.548030    -0.609984     0.649196
 H     6.573290    -0.306415     0.431295
 C     5.307203    -1.584863     1.615075
Cl     6.637265    -2.301928     2.458747
 C     1.966115     2.291068    -2.374933
 H     2.738608     2.444601    -3.145968
 H     1.131429     1.751393    -2.852680
 C     1.499902     3.619654    -1.813819
 H     0.968121     4.163591    -2.614649
 H     0.755435     3.424880    -1.023726
 C     2.623822     4.482870    -1.258576
 H     3.327863     4.727012    -2.073612
 H     3.203248     3.888764    -0.532264
 C     2.125762     5.760478    -0.603648
 H     1.559672     6.382565    -1.315643
 H     1.455892     5.538860     0.242789
 H     2.956539     6.370158    -0.217956
 C     1.643988     1.893114     1.571776
 H     2.065645     1.248036     2.363339
 H     2.485549     2.410093     1.081762
 C     0.671028     2.893441     2.156676
 H     1.224508     3.512551     2.884693
 H     0.334176     3.577648     1.358759
 C    -0.543402     2.260327     2.820274
 H    -0.204330     1.522934     3.570359
 H    -1.099440     1.689836     2.060039
 C    -1.465404     3.275211     3.474516
 H    -0.950671     3.833869     4.273130
 H    -1.837808     4.009230     2.743052
 H    -2.344164     2.786976     3.922814
 C    -1.742745     1.926104    -0.953562
 H    -0.898423     1.783205    -1.630099
 C    -3.429756     0.990919     0.492574
 H    -3.908828     0.118304     0.941540
 C    -2.179522     3.212113    -0.649484
 H    -1.697612     4.089372    -1.083806
 C    -3.876205     2.268849     0.810111
 H    -4.705495     2.421194     1.502674
 C    -3.239025     3.372119     0.240507
Cl    -3.756386     4.969312     0.667492
 C    -3.037980    -2.631798    -2.256382
 H    -3.963312    -2.626397    -2.852835
 H    -2.180067    -2.617019    -2.949076
 C    -2.973967    -3.856254    -1.365762
 H    -2.942335    -4.746870    -2.018465
 H    -2.015657    -3.842456    -0.818371
 C    -4.125542    -3.964176    -0.377671
 H    -5.078079    -4.033570    -0.932609
 H    -4.173089    -3.027726     0.200058
 C    -3.987625    -5.145359     0.567927
 H    -3.948752    -6.101128     0.020274
 H    -3.062628    -5.067627     1.161576
 H    -4.829986    -5.200955     1.274383
 C    -1.083120    -1.485244     1.783074
 H    -0.430467    -2.377476     1.756980
 H    -0.440753    -0.598828     1.655637
 C    -1.828388    -1.411523     3.097819
 H    -1.080715    -1.316474     3.905250
 H    -2.419171    -0.478869     3.116348
 C    -2.734422    -2.605180     3.361322
 H    -2.126524    -3.527603     3.356100
 H    -3.437770    -2.706976     2.519250
 C    -3.500233    -2.498922     4.669296
 H    -2.817986    -2.425059     5.531764
 H    -4.142556    -1.603456     4.683116
 H    -4.147927    -3.373642     4.831807
