  78
scf done:    -3142.027166
 C     1.068257     0.240554     3.640202
 H     1.052852    -0.709009     4.181401
 H     2.069881     0.651853     3.488808
 C    -0.045323     1.107771     3.723597
 H    -0.915015     0.812050     4.317610
 H     0.104772     2.187939     3.656944
 H     0.917663     1.394045     1.386120
Rh    -0.014934     0.166100     1.766717
 C     2.901429    -0.189636    -0.190931
 O     2.166050    -2.379623     0.986099
 O     0.676075    -1.576645    -0.934159
 C    -2.757017     0.281734    -0.466450
 O    -2.202624     2.563596     0.637655
 O    -0.489648     1.673037    -1.044508
 P    -1.361851     1.198812     0.271171
 P     1.405648    -1.020012     0.440987
 C    -1.241920    -1.227086     2.253344
 O    -1.999878    -2.041427     2.526769
 C     2.751687     1.092350    -0.735415
 H     1.763782     1.561911    -0.741580
 C     4.162990    -0.791004    -0.184043
 H     4.279369    -1.784343     0.252226
 C     3.842168     1.757084    -1.284123
 H     3.732334     2.752963    -1.716822
 C     5.264138    -0.127986    -0.721608
 H     6.253956    -0.587368    -0.715498
 C     5.094690     1.140614    -1.272741
Cl     6.457916     1.967898    -1.947717
 C     1.419550    -3.489160     1.496907
 H     0.376133    -3.408119     1.139605
 C     1.433133    -3.469104     3.010867
 H     0.981172    -2.543062     3.385763
 H     2.467879    -3.525323     3.381790
 H     0.867451    -4.322538     3.413124
 C     2.041224    -4.749325     0.928706
 H     2.024463    -4.742489    -0.169953
 H     3.088887    -4.833850     1.255953
 H     1.497518    -5.639421     1.278423
 C     1.348881    -2.315401    -1.961518
 H     2.297513    -2.704035    -1.550442
 C     1.641353    -1.408541    -3.140030
 H     2.291103    -0.573238    -2.846996
 H     0.702738    -0.996491    -3.539261
 H     2.142912    -1.972090    -3.941101
 C     0.450793    -3.478314    -2.335481
 H     0.223853    -4.099964    -1.457689
 H    -0.500185    -3.106380    -2.747686
 H     0.930399    -4.112028    -3.096342
 C    -4.044903     0.814049    -0.578065
 H    -4.241031     1.819780    -0.203079
 C    -2.507476    -1.017005    -0.929416
 H    -1.499699    -1.434074    -0.845007
 C    -5.069501     0.069880    -1.158230
 H    -6.077672     0.477661    -1.248705
 C    -3.522629    -1.766074    -1.513475
 H    -3.334629    -2.777025    -1.879254
 C    -4.799998    -1.215182    -1.625713
Cl    -6.069223    -2.144945    -2.349086
 C    -1.750618     3.490356     1.630548
 H    -0.709032     3.235189     1.891476
 C    -2.623781     3.338227     2.858266
 H    -2.569834     2.306441     3.231883
 H    -3.672338     3.568573     2.613499
 H    -2.295263     4.016922     3.659683
 C    -1.799718     4.879399     1.029489
 H    -1.148052     4.948216     0.147071
 H    -2.826529     5.129372     0.720714
 H    -1.467225     5.628541     1.763366
 C    -1.056532     2.401131    -2.140563
 H    -2.025501     2.821534    -1.819532
 C    -1.267597     1.474295    -3.321282
 H    -1.953154     0.655188    -3.065941
 H    -0.307163     1.039508    -3.635856
 H    -1.692849     2.028580    -4.171522
 C    -0.106644     3.539056    -2.457733
 H     0.046704     4.174806    -1.574282
 H     0.872235     3.142893    -2.770310
 H    -0.502720     4.162561    -3.273098
