  84
scf done:    -2301.659129
 C     1.646979    -2.332166    -1.913781
 H     1.900158    -1.941209    -2.903924
 H     2.508310    -2.476668    -1.255782
 C     0.485974    -3.123011    -1.746881
 H    -0.145230    -3.341281    -2.614089
 H     0.453291    -3.884344    -0.963532
 H     0.699347    -1.797867     0.426858
Rh     0.146784    -1.140754    -0.913216
 C     3.246809     0.076715     0.089026
 O     1.703180     1.945137    -0.903632
 O     1.090749     1.007138     1.400368
 C    -2.642391     0.673278     0.096603
 O    -3.043027    -1.908698     0.059303
 O    -1.498115    -0.978489     1.913059
 P    -1.753985    -0.907649     0.301717
 P     1.486683     0.510235    -0.117962
 C    -0.666200    -0.507431    -2.527946
 O    -1.212451    -0.197142    -3.487716
 C     3.575227    -1.009373     0.912080
 H     2.778656    -1.556222     1.424687
 C     4.271507     0.748956    -0.579805
 H     4.021743     1.597277    -1.219211
 C     4.899057    -1.399867     1.068437
 H     5.136906    -2.247293     1.717844
 C     5.597169     0.346100    -0.422730
 H     6.388210     0.884866    -0.952090
 C     5.935693    -0.731146     0.400716
 C     7.358835    -1.181197     0.553615
 H     7.529532    -2.133645     0.025161
 H     8.062422    -0.443132     0.143727
 H     7.615300    -1.349008     1.610850
 C     0.816314     2.400291    -1.927810
 H    -0.153711     1.887790    -1.803656
 C     1.404538     2.050245    -3.280002
 H     1.591690     0.968657    -3.346967
 H     2.360407     2.576292    -3.430149
 H     0.717575     2.331791    -4.091717
 C     0.608634     3.887565    -1.736653
 H     0.145316     4.093796    -0.761893
 H     1.569854     4.421720    -1.787741
 H    -0.054124     4.284148    -2.519953
 C     1.895141     1.926953     2.148462
 H     2.827926     2.121925     1.590685
 C     2.235194     1.277923     3.473978
 H     2.816765     0.359251     3.314616
 H     1.313703     1.014675     4.014602
 H     2.828513     1.961088     4.100337
 C     1.134090     3.229611     2.298381
 H     0.910244     3.654946     1.310672
 H     0.186830     3.065734     2.835598
 H     1.727912     3.962771     2.864826
 C    -3.888063     0.764679    -0.525730
 H    -4.397669    -0.149566    -0.835012
 C    -1.995605     1.850349     0.500793
 H    -1.015442     1.784823     0.980494
 C    -4.474975     2.011648    -0.741447
 H    -5.450253     2.068155    -1.233132
 C    -2.594646     3.086048     0.293716
 H    -2.083055     3.994017     0.627267
 C    -3.842791     3.191122    -0.338414
 C    -4.464592     4.535074    -0.580363
 H    -4.515427     5.125104     0.348055
 H    -3.871617     5.120740    -1.301697
 H    -5.483478     4.443130    -0.981492
 C    -2.869318    -3.206327    -0.518841
 H    -2.133924    -3.109852    -1.336430
 C    -4.212422    -3.614935    -1.083019
 H    -4.558709    -2.882916    -1.827187
 H    -4.966038    -3.677598    -0.282650
 H    -4.142084    -4.598410    -1.570981
 C    -2.322599    -4.180801     0.505721
 H    -1.361204    -3.821141     0.901355
 H    -3.022067    -4.303605     1.346723
 H    -2.157209    -5.166601     0.045229
 C    -2.480683    -0.618641     2.888945
 H    -3.246963     0.014467     2.406243
 C    -1.771512     0.194338     3.951525
 H    -1.313636     1.087464     3.504212
 H    -0.972319    -0.403063     4.416441
 H    -2.475994     0.511302     4.734963
 C    -3.144433    -1.869868     3.428372
 H    -3.673868    -2.395096     2.622512
 H    -2.390739    -2.549152     3.855596
 H    -3.869896    -1.613483     4.215334
