  68
scf done:    -1843.733330
 C    -3.480341    -1.914842     0.200780
 H    -4.094518    -1.889674    -0.705159
 H    -3.152428    -2.919207     0.484332
 C    -3.694847    -0.933719     1.208312
 H    -4.465631    -0.170886     1.058004
 H    -3.528117    -1.195766     2.256849
 H    -1.229459    -1.490052     1.281050
Rh    -1.852002    -0.515514     0.179822
 C     1.398467    -1.760632    -0.202299
 C    -0.512238    -3.036349    -1.890697
 C     0.410807    -0.368652    -2.550124
 C     0.440451     2.114520     0.247352
 C    -1.660508     2.476990     2.130136
 C     0.411071     0.520771     2.672460
 P    -0.681093     1.132100     1.318570
 P    -0.148672    -1.395166    -1.119043
 C    -2.634696     0.598558    -1.147178
 O    -3.099117     1.258989    -1.966746
 C     2.607748    -1.098262    -0.429803
 H     2.688668    -0.351131    -1.219592
 C     1.349402    -2.693022     0.845970
 H     0.407034    -3.197170     1.075034
 C     3.725991    -1.354570     0.365211
 H     4.655878    -0.812786     0.169105
 C     2.468037    -2.954603     1.625890
 H     2.396741    -3.684280     2.437684
 C     3.681076    -2.285792     1.404614
 C     4.883210    -2.573907     2.254866
 H     4.642529    -2.500739     3.326866
 H     5.257393    -3.595569     2.078354
 H     5.705136    -1.876008     2.042340
 H    -0.740461    -3.710868    -1.050390
 C    -1.686160    -2.979599    -2.854225
 H    -1.464473    -2.355715    -3.734112
 H    -2.570936    -2.554310    -2.358472
 H     0.399696    -3.421608    -2.375455
 H    -1.945249    -3.984864    -3.219968
 H     0.862215     0.535879    -2.109664
 C     1.322928    -1.015407    -3.581747
 H     0.808199    -1.817270    -4.131418
 H     2.222464    -1.456294    -3.127514
 H    -0.518826    -0.013382    -3.022978
 H     1.654858    -0.272549    -4.323920
 C    -0.121103     2.937757    -0.742090
 H    -1.206491     3.040937    -0.817385
 C     1.832373     1.988551     0.276708
 H     2.312908     1.345517     1.014796
 C     0.679546     3.604368    -1.660378
 H     0.210166     4.232721    -2.422750
 C     2.632249     2.653993    -0.653288
 H     3.718134     2.528196    -0.609699
 C     2.075762     3.472392    -1.638565
 C     2.931891     4.197141    -2.634981
 H     3.979466     3.869101    -2.581593
 H     2.575264     4.033636    -3.663730
 H     2.912777     5.284811    -2.456877
 H    -2.236297     2.956387     1.322609
 C    -2.599898     1.957706     3.205701
 H    -2.049599     1.505152     4.045413
 H    -3.270230     1.189098     2.796072
 H    -0.967967     3.239128     2.523468
 H    -3.215668     2.772515     3.616122
 H     1.149106    -0.136381     2.183228
 C     1.068225     1.553797     3.574088
 H     0.324775     2.099480     4.174121
 H     1.641924     2.300386     3.004995
 H    -0.227682    -0.164856     3.250952
 H     1.761544     1.067531     4.278053
