  60
scf done:    -1987.353253
 C     0.652969    -3.370481     0.310104
 H     0.532309    -3.886950    -0.645915
 H     1.681478    -3.344055     0.677912
 C    -0.426277    -3.279780     1.211544
 H    -1.388398    -3.736864     0.962610
 H    -0.228282    -3.196251     2.282114
 H     0.785064    -1.025511     1.461516
Rh    -0.147003    -1.351658     0.207000
 C     2.591777     0.882681    -0.208453
 O     2.674964    -1.530428    -1.473684
 O     1.261211     0.383342    -2.386422
 C    -2.820657     0.938825     0.172875
 O    -2.149634     0.028973     2.552170
 O    -0.653252     1.743938     1.434752
 P    -1.393918     0.312880     1.115274
 P     1.560828    -0.423572    -0.969600
 C    -1.434009    -1.789745    -1.137788
 O    -2.248855    -2.086643    -1.886418
 C     2.426816     2.208167    -0.628486
 H     1.753900     2.416377    -1.460540
 C     3.472980     0.586222     0.857120
 C     3.699789    -0.808504     1.364940
 H     4.087561    -1.474382     0.581136
 H     2.754494    -1.259529     1.707203
 H     4.409550    -0.805789     2.203013
 C     3.110523     3.249177    -0.006511
 H     2.966562     4.276838    -0.348006
 C     4.153097     1.650038     1.461293
 H     4.839681     1.431492     2.283786
 C     3.977126     2.967567     1.045526
 H     4.521905     3.772936     1.544225
 C     3.808824    -1.129237    -2.215867
 H     3.526279    -0.487549    -3.065027
 H     4.526336    -0.576785    -1.585534
 H     4.290459    -2.041512    -2.593610
 C     0.338569    -0.144618    -3.312409
 H     0.503893    -1.219690    -3.490784
 H    -0.699262     0.004514    -2.974627
 H     0.483448     0.396484    -4.257718
 C    -4.081413     0.432477     0.508230
 H    -4.173153    -0.220361     1.377809
 C    -2.676746     1.796146    -0.938636
 C    -1.359954     2.395343    -1.334087
 H    -0.558383     1.644914    -1.344998
 H    -1.049716     3.164162    -0.611829
 H    -1.422428     2.850615    -2.332322
 C    -5.207432     0.757778    -0.242351
 H    -6.183744     0.353590     0.034534
 C    -3.823377     2.108135    -1.677642
 H    -3.724600     2.773060    -2.540163
 C    -5.075431     1.598813    -1.342978
 H    -5.948379     1.861055    -1.945701
 C    -1.784719    -1.024567     3.412418
 H    -2.242569    -1.975018     3.095998
 H    -0.693310    -1.166274     3.454520
 H    -2.154157    -0.763672     4.414538
 C     0.413088     1.797749     2.353496
 H     0.031031     1.844877     3.387096
 H     1.078560     0.924402     2.252359
 H     0.996628     2.703302     2.139092
