  70
scf done:    -2069.782035
 C    -0.530207    -3.307562    -1.074924
 H    -1.213390    -3.922610    -0.479702
 H    -0.839276    -3.178970    -2.115904
 C     0.848247    -3.291937    -0.736736
 H     1.193969    -3.892807     0.110398
 H     1.603635    -3.147851    -1.514087
 H     0.341821    -1.010549    -1.652309
Rh    -0.024525    -1.418343    -0.157905
 C    -1.752376     1.041137    -2.027272
 C    -3.481831    -0.467002    -0.333699
 C    -1.780124     1.465848     0.822326
 C     1.708619     0.801434     1.996311
 C     3.413400    -0.658212     0.234800
 C     1.812132     1.463108    -0.837156
 P     1.714415     0.035800     0.310957
 P    -1.741901     0.121029    -0.428565
 C    -0.440481    -1.973448     1.616766
 O    -0.677514    -2.316189     2.687826
 H    -0.780352     1.556242    -2.094693
 C    -1.950782     0.123342    -3.221167
 H    -2.923838    -0.389704    -3.176614
 H    -1.164151    -0.645209    -3.253114
 H    -2.542221     1.809192    -1.985360
 H    -1.912146     0.696202    -4.159943
 C    -3.747657    -1.836487    -0.399538
 C    -4.549293     0.435367    -0.230729
 C    -6.119646    -1.399470    -0.272159
 C    -5.860935    -0.029205    -0.200567
 C    -5.062803    -2.301423    -0.370992
 H    -2.904613    -2.527281    -0.469703
 H    -5.260338    -3.374890    -0.422256
 H    -7.149954    -1.762815    -0.245436
 H    -6.687660     0.680451    -0.115633
 H    -4.351394     1.508686    -0.159030
 C    -1.526534     2.807363     0.519424
 C    -2.008068     1.108373     2.160262
 C    -1.701576     3.400470     2.858217
 C    -1.973195     2.065574     3.167956
 C    -1.482472     3.766982     1.533333
 H    -1.344452     3.116164    -0.510489
 H    -1.276049     4.809985     1.279661
 H    -1.666283     4.152183     3.650279
 H    -2.153369     1.768220     4.203766
 H    -2.210150     0.064759     2.414646
 H     1.487943    -0.039351     2.673345
 C     2.961602     1.534003     2.446272
 H     3.244086     2.343017     1.756288
 H     3.819333     0.848995     2.512011
 H     0.810651     1.440569     2.032889
 H     2.809072     1.981092     3.441053
 C     3.615740    -1.934069     0.774725
 C     4.510437     0.046438    -0.274614
 C     5.978895    -1.785783     0.300722
 C     5.784559    -0.518731    -0.246897
 C     4.891548    -2.490886     0.816317
 H     2.755256    -2.492632     1.150884
 H     5.035358    -3.486807     1.242297
 H     6.978511    -2.226617     0.321693
 H     6.632332     0.038385    -0.653373
 H     4.369483     1.043862    -0.697108
 C     2.027804     1.199812    -2.199194
 C     1.586535     2.783950    -0.438008
 C     1.786873     3.545381    -2.724825
 C     1.568840     3.817170    -1.377295
 C     2.022936     2.230358    -3.132687
 H     2.183478     0.168789    -2.527093
 H     2.193175     2.005604    -4.188301
 H     1.772879     4.354496    -3.458885
 H     1.382329     4.842111    -1.046798
 H     1.401258     3.020210     0.610050
