  94
scf done:    -3030.704459
 C    -0.077965    -3.447618    -1.983069
 H     0.531832    -3.474531    -2.890801
 H     0.342358    -3.998585    -1.137313
 C    -1.476162    -3.264474    -2.073857
 H    -1.948814    -3.150755    -3.053519
 H    -2.133620    -3.663073    -1.297038
 H    -0.760516    -2.054753     0.035955
Rh    -0.559216    -1.414626    -1.400197
 C     1.746158    -1.145260     1.206816
 O     2.707842    -0.740734    -1.330297
 O     1.207053     1.084532    -0.261557
 C    -2.483414     1.597522    -1.306926
 O    -3.692712    -0.515932    -0.385404
 O    -1.715326     0.403173     0.989296
 P    -2.115035    -0.024030    -0.581785
 P     1.305076    -0.577123    -0.464649
 C    -0.362771    -0.681299    -3.172351
 O    -0.239145    -0.238440    -4.219573
 C     1.164422    -0.521619     2.316706
 H     0.518592     0.345827     2.172183
 C     2.499186    -2.311904     1.391577
 H     2.933249    -2.832495     0.535461
 C     1.365225    -1.025847     3.597871
 H     0.918920    -0.553301     4.474606
 C     2.708453    -2.822579     2.667969
 H     3.302344    -3.723008     2.833152
 C     2.143175    -2.166598     3.755791
 F     2.342555    -2.651421     4.978679
 C     4.012761    -0.964913    -0.970474
 C     4.655526    -0.309142     0.077930
 H     4.124427     0.422548     0.685516
 C     4.709737    -1.902513    -1.734332
 H     4.184766    -2.407031    -2.547777
 C     5.989995    -0.601830     0.350983
 H     6.480529    -0.083398     1.179331
 C     6.042618    -2.177776    -1.450105
 H     6.575291    -2.915389    -2.057003
 C     6.711270    -1.533741    -0.401085
 C     8.157592    -1.817428    -0.115732
 H     8.433425    -1.515851     0.904813
 H     8.815216    -1.268535    -0.810539
 H     8.388853    -2.887227    -0.228910
 C     2.259941     1.943231    -0.086814
 C     3.027907     2.325466    -1.188684
 H     2.792475     1.910244    -2.169881
 C     2.542842     2.463489     1.174206
 H     1.932399     2.170798     2.028733
 C     4.093915     3.198812    -1.014058
 H     4.698599     3.479720    -1.880731
 C     3.613572     3.343367     1.330434
 H     3.832284     3.742976     2.324376
 C     4.413853     3.719305     0.247679
 C     5.581053     4.647232     0.419842
 H     5.491633     5.529323    -0.233572
 H     6.527475     4.146892     0.159069
 H     5.664032     5.002679     1.456331
 C    -1.408392     2.332381    -1.821487
 H    -0.403866     1.903268    -1.803636
 C    -3.765571     2.159229    -1.301145
 H    -4.601599     1.586262    -0.897998
 C    -1.603850     3.616609    -2.317977
 H    -0.778569     4.208254    -2.717548
 C    -3.972064     3.440355    -1.800994
 H    -4.961719     3.900500    -1.807317
 C    -2.886468     4.152098    -2.299523
 F    -3.081853     5.379775    -2.773207
 C    -4.015860    -1.797418    -0.024478
 C    -4.947900    -2.481365    -0.803130
 H    -5.372051    -1.982219    -1.676215
 C    -3.445379    -2.413954     1.088342
 H    -2.710887    -1.875919     1.689576
 C    -5.301899    -3.783564    -0.468577
 H    -6.027938    -4.315178    -1.090112
 C    -3.804849    -3.723043     1.402724
 H    -3.342658    -4.204946     2.268594
 C    -4.735184    -4.432602     0.636692
 C    -5.134818    -5.834682     0.995268
 H    -6.112107    -5.852102     1.506086
 H    -4.402666    -6.301672     1.669166
 H    -5.225741    -6.468477     0.100326
 C    -2.270361     1.482116     1.629056
 C    -3.511165     1.382320     2.252636
 H    -4.057072     0.438082     2.216768
 C    -1.561569     2.684058     1.660562
 H    -0.598206     2.741829     1.150172
 C    -4.039398     2.495236     2.905369
 H    -5.015427     2.413379     3.391597
 C    -2.103047     3.783295     2.316658
 H    -1.544996     4.723844     2.330383
 C    -3.351832     3.712148     2.949348
 C    -3.921921     4.908285     3.655480
 H    -4.947669     4.720201     4.002249
 H    -3.944348     5.789559     2.995450
 H    -3.316338     5.179444     4.535577
