  90
scf done:    -2729.907707
 C    -0.780130    -0.257905    -3.309557
 H    -1.404041    -1.104431    -3.607801
 H    -1.291176     0.708844    -3.338046
 C     0.616886    -0.322806    -3.480921
 H     1.061888    -1.232143    -3.896088
 H     1.195661     0.583423    -3.677149
 H     0.111527     1.047318    -1.344155
Rh     0.160843    -0.534006    -1.362000
 C    -2.482766     1.450904    -0.695680
 C    -3.286705    -1.333716    -0.725701
 C    -2.110449    -0.266716     1.618003
 C     1.640673     0.598859     1.572282
 C     3.214150    -1.432621     0.149678
 C     3.136174     1.323319    -0.740261
 P     2.040431    -0.028147    -0.107185
 P    -1.889083    -0.223656    -0.219715
 C     0.445349    -2.423769    -1.370573
 O     0.712450    -3.539973    -1.378575
 C    -1.725818     2.572392    -0.319451
 H    -0.834423     2.444897     0.300512
 C    -3.575133     1.638812    -1.547224
 H    -4.161581     0.779085    -1.878246
 C    -2.074563     3.848711    -0.743418
 H    -1.495624     4.726096    -0.449770
 C    -3.925357     2.912290    -1.996286
 H    -4.773029     3.066733    -2.666205
 C    -3.175135     4.002530    -1.581374
 F    -3.506217     5.222282    -2.000140
 C    -2.975937    -2.334194    -1.654277
 H    -1.953931    -2.383378    -2.030123
 C    -4.603858    -1.262809    -0.207067
 C    -5.064209    -0.270757     0.822203
 H    -4.637209     0.727597     0.670553
 H    -4.773652    -0.590948     1.835061
 H    -6.159572    -0.183226     0.799614
 C    -3.919977    -3.259219    -2.088125
 H    -3.638694    -4.028966    -2.810106
 C    -5.540952    -2.198779    -0.666146
 H    -6.560959    -2.144469    -0.275811
 C    -5.216191    -3.187739    -1.589615
 H    -5.977897    -3.899875    -1.916386
 C    -2.399133     0.888412     2.354421
 H    -2.467505     1.851275     1.847623
 C    -2.029244    -1.507739     2.291160
 C    -1.676041    -2.787122     1.592729
 H    -0.870547    -2.634294     0.859474
 H    -2.533419    -3.197271     1.036655
 H    -1.348287    -3.547441     2.315219
 C    -2.646862     0.836681     3.722192
 H    -2.870883     1.755441     4.268689
 C    -2.301492    -1.540227     3.664573
 H    -2.256450    -2.503151     4.181407
 C    -2.618607    -0.389455     4.380389
 H    -2.826296    -0.449210     5.451387
 C     1.002324    -0.240229     2.496994
 H     0.761549    -1.268764     2.222996
 C     1.851607     1.938314     1.923395
 H     2.330714     2.617348     1.215232
 C     0.653066     0.217850     3.760729
 H     0.165194    -0.432834     4.485907
 C     1.458833     2.424059     3.169495
 H     1.609678     3.468810     3.447356
 C     0.875135     1.551650     4.077203
 F     0.499366     2.005837     5.271928
 C     3.383139    -2.036444     1.401727
 H     2.881824    -1.623269     2.276576
 C     3.917818    -1.949378    -0.962672
 C     3.848854    -1.329070    -2.325511
 H     4.511566    -0.451137    -2.393627
 H     2.833011    -0.978802    -2.555110
 H     4.158649    -2.047358    -3.097235
 C     4.211092    -3.141318     1.571029
 H     4.322994    -3.587770     2.561804
 C     4.744164    -3.063083    -0.768787
 H     5.284566    -3.464503    -1.630449
 C     4.894189    -3.663298     0.476718
 H     5.544906    -4.533424     0.591092
 C     2.626288     2.123857    -1.768464
 H     1.618522     1.911279    -2.129272
 C     4.427897     1.597309    -0.227197
 C     5.064493     0.844769     0.905485
 H     5.454303    -0.130542     0.576232
 H     4.354522     0.643774     1.718661
 H     5.903682     1.422110     1.317816
 C     3.362506     3.167831    -2.320688
 H     2.933841     3.773720    -3.122119
 C     5.153854     2.647442    -0.804903
 H     6.152172     2.864015    -0.414836
 C     4.642621     3.423423    -1.841234
 H     5.242978     4.233292    -2.262970
