  82
scf done:    -5432.011095
 C     0.831655    -3.686481     0.579488
 H     1.608368    -4.041618    -0.103397
 H     1.131169    -3.644404     1.629593
 C    -0.526419    -3.813337     0.242195
 H    -0.815845    -4.271635    -0.707441
 H    -1.285430    -3.868699     1.024999
 H    -0.332905    -1.556304     1.472634
Rh     0.085570    -1.727094    -0.050873
 C     1.736227     0.751498     1.973390
 O     3.284545    -0.972221     0.821294
 O     2.121534     0.749009    -0.705256
 C    -1.902938     0.526566    -1.930946
 O    -3.240425    -1.301962    -0.655505
 O    -2.153133     0.551502     0.753693
 P    -1.768830    -0.538455    -0.469058
 P     1.763746    -0.345674     0.530083
 C     0.549158    -2.003655    -1.902379
 O     0.802225    -2.172723    -3.003586
 C     0.499733     1.235747     2.411679
 H    -0.423972     0.877042     1.951669
 C     2.912928     1.204340     2.585181
 H     3.879165     0.821594     2.254337
 C     0.434554     2.180354     3.432067
 H    -0.526952     2.565161     3.775525
 C     2.855983     2.143140     3.608016
 H     3.767080     2.505305     4.086536
 C     1.615180     2.632133     4.019922
Cl     1.542750     3.811187     5.282126
 C     3.803043    -2.014164     0.108033
 C     4.397968    -3.056849     0.818587
 H     4.415129    -3.009475     1.908687
 C     3.762742    -2.047774    -1.286802
 H     3.309705    -1.223049    -1.838718
 C     4.942195    -4.140231     0.138840
 H     5.405666    -4.963765     0.684157
 C     4.295064    -3.138568    -1.969779
 H     4.255313    -3.180553    -3.059217
 C     4.880770    -4.181272    -1.255083
Cl     5.543126    -5.538610    -2.102464
 C     2.959979     1.819823    -0.532932
 C     4.340482     1.667452    -0.658597
 H     4.757686     0.686355    -0.890527
 C     2.412437     3.068558    -0.238337
 H     1.330004     3.163510    -0.135759
 C     5.176138     2.766255    -0.478103
 H     6.258257     2.662572    -0.571459
 C     3.243502     4.168333    -0.057338
 H     2.828205     5.148492     0.181239
 C     4.624559     4.010152    -0.173627
Cl     5.664984     5.374218     0.060993
 C    -3.123318     0.806413    -2.558082
 H    -4.032066     0.305375    -2.221709
 C    -0.736982     1.165459    -2.368836
 H     0.222400     0.947703    -1.890134
 C    -3.181790     1.723967    -3.600243
 H    -4.128035     1.952762    -4.092788
 C    -0.788064     2.088945    -3.408674
 H     0.116128     2.593030    -3.753282
 C    -2.013178     2.365240    -4.014618
Cl    -2.086449     3.516371    -5.301895
 C    -3.639797    -2.336153     0.143290
 C    -4.214498    -3.446226    -0.474874
 H    -4.306162    -3.455655    -1.562274
 C    -3.502144    -2.296485     1.532577
 H    -3.045654    -1.428959     2.010961
 C    -4.649275    -4.522349     0.290611
 H    -5.096775    -5.397608    -0.182710
 C    -3.929929    -3.376909     2.299749
 H    -3.820026    -3.361751     3.385129
 C    -4.500346    -4.485721     1.677358
Cl    -5.031064    -5.829074     2.632933
 C    -3.077161     1.551295     0.586353
 C    -4.437594     1.294858     0.752984
 H    -4.770913     0.289134     1.013220
 C    -2.635052     2.832826     0.258191
 H    -1.566148     3.009344     0.127046
 C    -5.360005     2.323055     0.579134
 H    -6.427973     2.138230     0.704407
 C    -3.553351     3.862100     0.083660
 H    -3.221518     4.867204    -0.180416
 C    -4.914466     3.600093     0.240375
Cl    -6.063008     4.875816     0.013831
