  74
scf done:    -2841.218328
 C    -2.471863    -3.262364    -0.169911
 H    -3.145548    -3.350464    -1.028283
 H    -1.718105    -4.053985    -0.118938
 C    -2.952604    -2.673950     1.033153
 H    -3.987973    -2.320515     1.080330
 H    -2.557977    -3.013413     1.995266
 H    -0.520311    -2.111243     0.892686
Rh    -1.607367    -1.312034     0.057767
 C     1.808301    -1.065538    -0.426676
 C     0.491698    -2.877942    -2.240156
 C     0.389030     0.141185    -2.642996
 C    -0.520152     1.937015     0.497845
 C    -2.662029     1.229772     2.281878
 C     0.189149     0.236245     2.745590
 P    -1.141238     0.498524     1.464156
 P     0.239529    -1.231051    -1.381520
 C    -3.037984    -0.471530    -0.865552
 O    -3.971621    -0.005715    -1.351704
 C     2.667135     0.035517    -0.512103
 H     2.470941     0.839256    -1.220740
 C     2.121737    -2.064702     0.509693
 H     1.462055    -2.928641     0.617482
 C     3.781552     0.155701     0.318532
 H     4.435852     1.026481     0.248838
 C     3.234034    -1.968170     1.335787
 H     3.460561    -2.750025     2.062389
 C     4.057749    -0.844870     1.244584
Cl     5.428519    -0.697136     2.291837
 H     0.294622    -3.560191    -1.394782
 C    -0.607780    -3.113102    -3.269700
 H    -0.633320    -4.174234    -3.563879
 H    -1.595201    -2.846118    -2.865451
 H    -0.434733    -2.525266    -4.184361
 C     1.876666    -3.195033    -2.790666
 H     2.673422    -2.985627    -2.062474
 H     1.933113    -4.265840    -3.046432
 H     2.097956    -2.631340    -3.706710
 H     0.581312     1.011684    -1.990904
 C     1.529827     0.012856    -3.648765
 H     1.681337     0.975603    -4.163513
 H     2.484936    -0.276911    -3.189749
 H     1.289627    -0.732423    -4.421441
 C    -0.926799     0.423925    -3.357390
 H    -1.739295     0.623601    -2.650377
 H    -0.813134     1.314325    -3.996127
 H    -1.236680    -0.411454    -4.001907
 C    -1.386847     2.521713    -0.440913
 H    -2.419978     2.176114    -0.521440
 C     0.796433     2.408614     0.549648
 H     1.509563     1.986462     1.257066
 C    -0.959515     3.523381    -1.302852
 H    -1.642322     3.961726    -2.032304
 C     1.244601     3.407070    -0.315039
 H     2.277235     3.757980    -0.271490
 C     0.366657     3.955300    -1.244815
Cl     0.921185     5.176103    -2.340095
 H    -3.356466     1.256814     1.423345
 C    -3.246762     0.252694     3.295451
 H    -4.267209     0.560112     3.573387
 H    -3.292665    -0.766050     2.885639
 H    -2.650074     0.228923     4.220236
 C    -2.552335     2.643194     2.840650
 H    -2.094982     3.341623     2.125265
 H    -3.559169     3.022871     3.079805
 H    -1.965104     2.675058     3.768105
 H     1.076430     0.113575     2.097789
 C     0.432986     1.390451     3.713709
 H     1.392163     1.241334     4.235510
 H     0.466273     2.372975     3.223056
 H    -0.350720     1.427231     4.484760
 C     0.022777    -1.077443     3.502707
 H    -0.155076    -1.913577     2.812897
 H     0.936841    -1.287314     4.080543
 H    -0.817027    -1.036342     4.211724
