 108
scf done:    -2767.246096
 C    -0.071265    -1.071967    -3.865615
 H    -0.669072    -1.952907    -4.120351
 H    -0.467831    -0.133348    -4.262797
 C     1.325609    -1.211641    -3.656661
 H     1.788264    -2.199247    -3.754070
 H     1.992288    -0.380091    -3.905298
 H     0.585364     0.598616    -2.077000
Rh     0.350062    -0.937624    -1.756379
 C    -2.307841     1.394195    -0.927854
 C    -3.048947    -1.238362    -1.868213
 C    -1.957626    -0.920896     0.915579
 C     2.020697    -0.565266     1.432834
 C     3.424872    -1.974766    -0.598015
 C     3.232029     0.868631    -0.776398
 P     2.176565    -0.588891    -0.393668
 P    -1.732401    -0.349113    -0.858811
 C     0.146215    -2.785614    -1.352003
 O     0.047613    -3.900263    -1.079438
 C    -1.574793     2.317603    -1.679676
 H    -0.656977     1.985312    -2.170764
 C    -3.481500     1.841101    -0.295781
 H    -4.090690     1.156972     0.292127
 C    -1.984696     3.644730    -1.786196
 H    -1.379430     4.344307    -2.368975
 C    -3.879511     3.168927    -0.399741
 H    -4.788243     3.490891     0.116869
 C    -3.139780     4.097773    -1.143998
 C    -3.588579     5.525032    -1.255106
 H    -4.481307     5.608595    -1.896684
 H    -3.859841     5.937682    -0.271319
 H    -2.805485     6.161611    -1.690246
 H    -3.178787    -0.573420    -2.735930
 H    -2.534061    -2.130907    -2.244575
 C    -4.368556    -1.593923    -1.259349
 C    -5.408910    -0.656593    -1.236380
 H    -5.245034     0.322670    -1.691464
 C    -4.595623    -2.882331    -0.725270
 C    -3.554320    -3.963086    -0.795095
 H    -2.612907    -3.687048    -0.296789
 H    -3.290663    -4.202879    -1.838074
 H    -3.917781    -4.886829    -0.324851
 C    -6.636723    -0.946383    -0.649800
 H    -7.426313    -0.191544    -0.634930
 C    -5.840550    -3.160645    -0.148438
 H    -6.017378    -4.157300     0.265342
 C    -6.851930    -2.204493    -0.092894
 H    -7.811106    -2.449574     0.369293
 H    -2.208897    -1.987885     0.819289
 H    -0.933498    -0.880406     1.307458
 C    -2.895363    -0.248109     1.872542
 C    -4.184957    -0.751710     2.075246
 H    -4.499467    -1.644130     1.531887
 C    -2.486642     0.901901     2.582733
 C    -1.115445     1.477116     2.402710
 H    -0.962204     1.797084     1.361181
 H    -0.323756     0.748072     2.634811
 H    -0.962839     2.354411     3.045670
 C    -5.082608    -0.121799     2.932596
 H    -6.087794    -0.530739     3.058759
 C    -3.398887     1.518403     3.444687
 H    -3.084566     2.414006     3.987869
 C    -4.689996     1.024933     3.618077
 H    -5.383601     1.532575     4.292918
 C     1.297673    -1.607183     2.031067
 H     0.847354    -2.381518     1.402900
 C     2.587570     0.407308     2.261047
 H     3.164064     1.229675     1.835338
 C     1.142627    -1.670993     3.410627
 H     0.573053    -2.494052     3.851091
 C     2.415866     0.347478     3.643296
 H     2.860086     1.125949     4.269603
 C     1.688206    -0.684010     4.243943
 C     1.463643    -0.721147     5.726298
 H     2.192440    -0.096369     6.261545
 H     0.457399    -0.345736     5.976624
 H     1.533182    -1.746447     6.119142
 H     2.926060    -2.850296    -0.153905
 H     3.473055    -2.160127    -1.679427
 C     4.773502    -1.746465     0.012196
 C     4.942673    -1.900267     1.394897
 H     4.097192    -2.238919     1.997514
 C     5.874589    -1.334328    -0.770792
 C     5.779840    -1.211655    -2.265709
 H     5.018955    -0.481635    -2.580675
 H     5.508694    -2.172011    -2.733239
 H     6.740658    -0.893936    -2.693138
 C     6.158906    -1.625705     2.013116
 H     6.260190    -1.750278     3.093703
 C     7.089603    -1.061727    -0.131995
 H     7.942410    -0.743272    -0.738072
 C     7.237888    -1.194476     1.246470
 H     8.198777    -0.972300     1.716681
 H     4.197234     0.723815    -0.262359
 H     3.446044     0.754578    -1.853115
 C     2.719654     2.259948    -0.521047
 C     1.427761     2.513975    -0.057750
 H     0.748778     1.675606     0.102822
 C     3.593429     3.345403    -0.750889
 C     4.987842     3.114134    -1.255663
 H     4.986002     2.594318    -2.227927
 H     5.573824     2.482455    -0.567607
 H     5.526293     4.063085    -1.383532
 C     0.987495     3.812339     0.188666
 H    -0.031288     3.979038     0.544981
 C     3.137689     4.642906    -0.501310
 H     3.815022     5.483106    -0.678564
 C     1.846885     4.883155    -0.033511
 H     1.515699     5.907244     0.155136
