  90
scf done:    -3450.479755
 C    -0.309757    -4.056153    -1.578391
 H     0.133235    -4.249591    -2.560107
 H     0.172919    -4.589009    -0.753733
 C    -1.682854    -3.723027    -1.478941
 H    -2.290081    -3.655131    -2.386803
 H    -2.242261    -3.987426    -0.578096
 H    -0.473936    -2.441676     0.364230
Rh    -0.494938    -1.946279    -1.151046
 C     1.537236    -0.006162     0.866684
 C     2.583620    -2.620557     0.293877
 C     2.771934    -0.695789    -1.864317
 C    -1.418911     1.342619    -0.185486
 C    -3.487843    -0.124257    -1.467732
 C    -2.769649    -0.708955     1.305582
 P    -2.001970    -0.390601    -0.356488
 P     1.600383    -1.242367    -0.497802
 C    -0.450807    -1.359973    -2.956786
 O    -0.373706    -0.963360    -4.034775
 C     1.868031     1.350114     0.775952
 H     2.306670     1.759639    -0.129186
 C     0.942932    -0.455302     2.057931
 H     0.639859    -1.501037     2.149672
 C     1.616329     2.226687     1.829437
 H     1.857581     3.285936     1.730034
 C     0.690119     0.405065     3.119288
 H     0.220585     0.042596     4.035555
 C     1.021040     1.754144     2.992653
Cl     0.637906     2.856723     4.272807
 H     2.525331    -3.448363    -0.428692
 H     1.993879    -2.935850     1.167041
 C     4.001904    -2.305870     0.650823
 C     4.319064    -1.540195     1.782647
 H     3.520083    -1.195988     2.441850
 C     5.051986    -2.739527    -0.170393
 H     4.827954    -3.358885    -1.043801
 C     5.639397    -1.202264     2.067434
 H     5.862850    -0.601044     2.951981
 C     6.374596    -2.401383     0.112215
 H     7.175429    -2.748422    -0.544952
 C     6.672748    -1.624980     1.230380
 H     7.707744    -1.356457     1.454140
 H     2.165842    -0.752787    -2.777463
 H     3.514766    -1.505493    -1.924630
 C     3.468862     0.628143    -1.809296
 C     4.603360     0.828052    -1.012615
 H     5.013171    -0.002980    -0.436629
 C     2.968861     1.708902    -2.546853
 H     2.097175     1.557736    -3.190088
 C     5.194368     2.085586    -0.926741
 H     6.071762     2.224283    -0.290552
 C     3.558041     2.968862    -2.458793
 H     3.149199     3.802933    -3.034693
 C     4.668538     3.163974    -1.638709
 H     5.128646     4.151827    -1.562439
 C    -0.623639     1.856300    -1.218113
 H    -0.336866     1.205942    -2.048507
 C    -1.746674     2.182848     0.882518
 H    -2.370305     1.826256     1.703047
 C    -0.174545     3.170985    -1.197871
 H     0.455795     3.562138    -1.997333
 C    -1.281879     3.494831     0.932505
 H    -1.511863     4.135062     1.785218
 C    -0.497276     3.979957    -0.109381
Cl     0.132648     5.592372    -0.029908
 H    -4.017614    -1.088897    -1.484529
 H    -3.056758     0.013165    -2.470943
 C    -4.378551     1.020753    -1.098940
 C    -4.090160     2.315601    -1.554560
 H    -3.235734     2.471706    -2.217102
 C    -5.486195     0.852271    -0.257493
 H    -5.754141    -0.147346     0.092147
 C    -4.867018     3.403317    -1.168130
 H    -4.617592     4.401965    -1.534499
 C    -6.266792     1.939687     0.132433
 H    -7.126742     1.780543     0.787519
 C    -5.956415     3.221310    -0.316718
 H    -6.566072     4.074814    -0.011210
 H    -3.631464    -0.034136     1.429864
 H    -2.001084    -0.411771     2.034559
 C    -3.157261    -2.140921     1.522791
 C    -2.315709    -2.999037     2.241024
 H    -1.395150    -2.601757     2.673991
 C    -4.339687    -2.671576     0.993521
 H    -5.022263    -2.026059     0.438034
 C    -2.632307    -4.344421     2.409009
 H    -1.956111    -4.994092     2.969718
 C    -4.662951    -4.016671     1.159895
 H    -5.590096    -4.406880     0.733582
 C    -3.806568    -4.861138     1.863335
 H    -4.055218    -5.917194     1.990064
