 100
scf done:    -2910.903723
 C    -0.629236    -3.486658    -1.457798
 H    -1.363891    -4.060768    -0.886325
 H    -0.958978    -3.188710    -2.456660
 C     0.747890    -3.618989    -1.185339
 H     1.086675    -4.306775    -0.405461
 H     1.486010    -3.419510    -1.965922
 H     0.415472    -1.164285    -1.766782
Rh     0.036193    -1.741384    -0.338869
 C    -1.917831     0.714089    -2.024471
 O    -3.257466    -0.932780    -0.512254
 O    -1.744152     0.815086     0.679736
 C     2.018614    -0.023849     2.041772
 O     3.336004    -0.993962     0.001242
 O     1.752121     1.008455    -0.448607
 P     1.776296    -0.484613     0.305360
 P    -1.703485    -0.323459    -0.551568
 C    -0.298169    -2.507817     1.399420
 O    -0.420118    -2.966995     2.439993
 C    -0.811769     1.462171    -2.448226
 H     0.137289     1.373320    -1.913496
 C    -3.115748     0.801926    -2.736910
 H    -3.975067     0.207686    -2.423177
 C    -0.919234     2.304467    -3.547599
 H    -0.048919     2.888063    -3.861058
 C    -3.207312     1.640185    -3.845847
 H    -4.149110     1.696803    -4.398753
 C    -2.118867     2.411535    -4.265068
 C    -2.224371     3.334412    -5.442933
 H    -3.166464     3.187973    -5.989302
 H    -2.183451     4.387772    -5.120719
 H    -1.392428     3.180818    -6.147358
 C    -3.608233    -1.944324     0.342990
 C    -3.443651    -1.804191     1.718721
 H    -3.016807    -0.878662     2.111222
 C    -4.151538    -3.108761    -0.197997
 H    -4.262179    -3.191438    -1.280375
 C    -3.801547    -2.843638     2.584980
 C    -3.551848    -2.709417     4.057887
 H    -2.476378    -2.823837     4.271305
 H    -3.855160    -1.718943     4.429089
 H    -4.093082    -3.474082     4.632308
 C    -4.527421    -4.135555     0.661878
 H    -4.956101    -5.053121     0.251673
 C    -4.350257    -4.008340     2.039827
 H    -4.639247    -4.827700     2.702830
 C    -2.451152     1.987931     0.717154
 C    -3.788008     2.065056     0.333455
 H    -4.296310     1.165145    -0.014510
 C    -1.782128     3.115465     1.198618
 H    -0.738765     3.025877     1.505600
 C    -4.471550     3.285335     0.394219
 C    -5.898247     3.362436    -0.066026
 H    -5.962374     3.231294    -1.158756
 H    -6.510142     2.569478     0.390690
 H    -6.352363     4.331614     0.183011
 C    -2.465063     4.324267     1.274712
 H    -1.949296     5.210847     1.651812
 C    -3.796792     4.413531     0.869395
 H    -4.321102     5.370820     0.925990
 C     0.913085     0.522646     2.708060
 H    -0.037303     0.638711     2.178691
 C     3.219643    -0.194657     2.733588
 H     4.078929    -0.630881     2.221929
 C     1.024351     0.913918     4.036445
 H     0.156665     1.348670     4.540682
 C     3.314859     0.191251     4.068395
 H     4.260018     0.053068     4.600815
 C     2.225748     0.755332     4.740887
 C     2.324856     1.160691     6.181728
 H     1.743868     0.477841     6.823130
 H     3.365078     1.146661     6.535661
 H     1.922009     2.172735     6.340162
 C     3.661383    -1.661977    -1.150376
 C     3.309516    -1.155081    -2.398426
 H     2.771039    -0.207299    -2.456342
 C     4.356734    -2.864962    -1.036137
 H     4.611438    -3.240414    -0.043747
 C     3.621951    -1.864363    -3.563639
 C     3.207995    -1.320696    -4.900088
 H     2.124032    -1.127517    -4.926860
 H     3.712020    -0.364331    -5.112902
 H     3.450976    -2.018681    -5.713147
 C     4.685049    -3.562934    -2.193200
 H     5.224326    -4.510174    -2.117655
 C     4.313527    -3.074091    -3.446259
 H     4.563151    -3.640532    -4.346959
 C     2.433318     2.138098    -0.078204
 C     3.778078     2.113183     0.283608
 H     4.314925     1.163902     0.277703
 C     1.726239     3.341995    -0.111516
 H     0.676463     3.336671    -0.409126
 C     4.432943     3.294951     0.650486
 C     5.870005     3.245813     1.081433
 H     6.487433     2.694781     0.355477
 H     6.293268     4.253465     1.195515
 H     5.968791     2.727280     2.049237
 C     2.380717     4.518523     0.236165
 H     1.835092     5.465031     0.210849
 C     3.721014     4.497570     0.621877
 H     4.222710     5.427414     0.901512
