  96
scf done:    -2610.101255
 C    -0.426998     3.344591    -1.458097
 H    -1.103197     3.450065    -2.312874
 H    -0.732109     3.918539    -0.577717
 C     0.950856     3.100833    -1.689833
 H     1.315226     3.004489    -2.717621
 H     1.691909     3.476737    -0.980494
 H     0.351823     1.935445     0.453745
Rh     0.027347     1.296841    -0.957664
 C    -1.023018    -0.035664     1.993926
 C    -3.205854     1.427092     0.597966
 C    -2.423134    -1.186039    -0.298063
 C     1.618752    -1.848788    -0.271393
 C     3.177415    -0.027711    -1.803990
 C     2.841508     0.541357     1.046824
 P     1.883220    -0.015353    -0.448562
 P    -1.674982     0.390641     0.319833
 C    -0.466242     0.625750    -2.672242
 O    -0.804950     0.247691    -3.704327
 C    -0.540060    -1.338610     2.191605
 H    -0.671584    -2.094792     1.417600
 C    -0.822129     0.925975     3.011284
 C    -1.258644     2.356950     2.882121
 H    -2.349389     2.463228     2.975670
 H    -0.960570     2.771974     1.906117
 H    -0.801271     2.972653     3.669045
 C     0.121779    -1.705215     3.359404
 H     0.485167    -2.729108     3.472527
 C    -0.159790     0.532806     4.181687
 H    -0.004891     1.277982     4.967023
 C     0.313261    -0.763284     4.365633
 H     0.829621    -1.032231     5.290017
 H    -2.854804     2.459182     0.728484
 H    -3.701511     1.107586     1.525900
 C    -4.165114     1.349143    -0.556245
 C    -5.440192     0.798183    -0.387629
 H    -5.735519     0.416214     0.593054
 C    -3.800515     1.817311    -1.825967
 H    -2.807989     2.249635    -1.964036
 C    -6.327681     0.712704    -1.458318
 H    -7.317415     0.276192    -1.304065
 C    -4.682450     1.721744    -2.899483
 H    -4.376187     2.085766    -3.883245
 C    -5.950261     1.168425    -2.719932
 H    -6.643426     1.096250    -3.561608
 H    -1.607162    -1.925054    -0.312457
 H    -2.629624    -0.972699    -1.358314
 C    -3.660386    -1.759188     0.339502
 C    -3.898463    -1.742150     1.719097
 H    -3.164676    -1.297258     2.392631
 C    -4.628274    -2.343133    -0.488862
 H    -4.469533    -2.346574    -1.570539
 C    -5.072033    -2.278822     2.248365
 H    -5.238107    -2.246979     3.328068
 C    -5.796624    -2.886096     0.036449
 H    -6.537995    -3.327456    -0.634187
 C    -6.027061    -2.851839     1.411364
 H    -6.946802    -3.269506     1.827784
 C     0.684698    -2.324582    -1.205064
 H     0.208677    -1.606269    -1.874906
 C     2.241598    -2.782170     0.590720
 C     3.323656    -2.455800     1.578730
 H     2.974478    -1.780104     2.371616
 H     4.187672    -1.989218     1.084174
 H     3.680304    -3.375656     2.060937
 C     0.333724    -3.667250    -1.298079
 H    -0.396152    -3.990841    -2.043605
 C     1.845169    -4.125501     0.506500
 H     2.313265    -4.843663     1.185087
 C     0.906804    -4.576576    -0.415215
 H     0.634298    -5.634052    -0.447341
 H     3.499955     1.018276    -1.915513
 H     2.613822    -0.281661    -2.714322
 C     4.321848    -0.969135    -1.592393
 C     4.205693    -2.317861    -1.960837
 H     3.292288    -2.661840    -2.451454
 C     5.511874    -0.556939    -0.976187
 H     5.644997     0.491869    -0.702782
 C     5.228079    -3.224641    -1.696651
 H     5.108635    -4.270963    -1.987733
 C     6.538502    -1.462031    -0.711759
 H     7.455756    -1.113877    -0.230759
 C     6.396730    -2.803149    -1.062919
 H     7.198405    -3.515242    -0.853704
 H     3.818999     0.042738     1.054481
 H     2.261901     0.177214     1.907891
 C     3.010133     2.028958     1.147383
 C     2.187323     2.770171     2.003369
 H     1.450016     2.240632     2.608358
 C     3.973899     2.718626     0.402577
 H     4.641942     2.169869    -0.262864
 C     2.300539     4.154813     2.091391
 H     1.639906     4.710170     2.761807
 C     4.095593     4.104334     0.490065
 H     4.852672     4.619298    -0.106023
 C     3.252515     4.830275     1.328818
 H     3.341450     5.917145     1.392869
