  88
scf done:    -2753.751738
 C     0.802340    -3.037613    -2.708588
 H     1.153286    -2.787855    -3.714063
 H     1.567591    -3.469059    -2.057190
 C    -0.562616    -3.334827    -2.491056
 H    -1.269382    -3.313003    -3.325222
 H    -0.848883    -3.998383    -1.671283
 H     0.283351    -2.136111    -0.413884
Rh    -0.135276    -1.349840    -1.727728
 C     3.046829    -0.865353    -0.403099
 O     2.009424     1.243399    -1.766376
 O     0.953474     0.599430     0.540157
 C    -2.301196     1.066975    -0.231478
 O    -3.332158    -1.396233    -0.755512
 O    -1.720445    -0.986128     1.216169
 P    -1.855947    -0.688675    -0.418538
 P     1.484782    -0.065134    -0.879080
 C    -0.536096    -0.466588    -3.385754
 O    -0.731769     0.049362    -4.388730
 C     3.047050    -1.738068     0.693851
 H     2.137801    -1.876134     1.285419
 C     4.205818    -0.732489    -1.168839
 H     4.202959    -0.083559    -2.047076
 C     4.201630    -2.429165     1.033300
 H     4.188048    -3.099108     1.897695
 C     5.359065    -1.434846    -0.821291
 H     6.261480    -1.320295    -1.428108
 C     5.380939    -2.287568     0.286114
 C     6.619478    -3.043559     0.666809
 H     7.452200    -2.826404    -0.016340
 H     6.942833    -2.787044     1.688212
 H     6.441635    -4.130571     0.649134
 C     2.373384     2.466513    -1.260011
 C     3.709758     2.861935    -1.303980
 H     4.454341     2.190557    -1.733153
 C     1.400685     3.314657    -0.728889
 H     0.359676     2.989791    -0.706673
 C     4.074893     4.103099    -0.786279
 H     5.122998     4.410451    -0.816634
 C     1.778862     4.546627    -0.204441
 H     1.017131     5.198088     0.230222
 C     3.115256     4.944447    -0.225576
 H     3.408153     5.910537     0.190996
 C     1.514968     1.270237     1.591540
 C     2.882983     1.474985     1.770900
 H     3.602110     1.095525     1.047527
 C     0.598110     1.774703     2.517618
 H    -0.464647     1.609399     2.332270
 C     3.321159     2.194417     2.881682
 H     4.392953     2.361920     3.011787
 C     1.051317     2.486537     3.623410
 H     0.327657     2.882308     4.340269
 C     2.416823     2.700883     3.812398
 H     2.773257     3.264265     4.677334
 C    -2.053471     1.935788    -1.295540
 H    -1.585401     1.560823    -2.207971
 C    -2.888834     1.574843     0.935143
 H    -3.091395     0.904634     1.772044
 C    -2.381994     3.286455    -1.197820
 H    -2.175677     3.951348    -2.040770
 C    -3.207298     2.923813     1.027290
 H    -3.664533     3.304489     1.944953
 C    -2.956135     3.805620    -0.033475
 C    -3.271958     5.266407     0.093477
 H    -4.253176     5.425349     0.565382
 H    -2.523825     5.774723     0.724329
 H    -3.275080     5.766338    -0.885101
 C    -4.491707    -1.033481    -0.117118
 C    -5.341544    -0.109216    -0.724690
 H    -5.055659     0.316927    -1.687893
 C    -4.819007    -1.594359     1.117737
 H    -4.142127    -2.317070     1.576010
 C    -6.523683     0.259107    -0.087966
 H    -7.187810     0.984872    -0.563303
 C    -6.004127    -1.217536     1.746849
 H    -6.261518    -1.656103     2.713999
 C    -6.857630    -0.290224     1.149916
 H    -7.784935     0.001718     1.647825
 C    -1.114271    -2.082888     1.751887
 C    -1.404590    -3.375212     1.307303
 H    -2.118692    -3.516789     0.493635
 C    -0.195710    -1.877248     2.781945
 H     0.019875    -0.856160     3.100813
 C    -0.759503    -4.461277     1.895077
 H    -0.980961    -5.470765     1.540642
 C     0.436907    -2.972531     3.365771
 H     1.157371    -2.808376     4.170899
 C     0.162882    -4.266886     2.922664
 H     0.665120    -5.122673     3.378875
