  82
scf done:    -3594.130792
 C     1.264568    -1.253407    -3.408113
 H     1.322669    -0.479963    -4.179152
 H     2.232835    -1.631433    -3.068481
 C     0.114162    -2.065244    -3.308502
 H    -0.718069    -1.924291    -4.003802
 H     0.192346    -3.072085    -2.890854
 H     0.921444    -1.704684    -0.931538
Rh     0.082441    -0.602245    -1.703848
 C     3.244440     0.224417    -0.425420
 O     1.713598     2.280352    -0.920569
 O     1.069580     0.742911     1.089487
 C    -2.483999     0.188211     0.534804
 O    -2.740962    -2.117939    -0.845899
 O    -1.069147    -1.923996     1.155659
 P    -1.534303    -1.148762    -0.243564
 P     1.487525     0.678886    -0.526277
 C    -0.981791     0.664566    -2.700839
 O    -1.665606     1.354582    -3.303550
 C     3.560874    -1.008199     0.158624
 H     2.769311    -1.645128     0.561990
 C     4.265639     1.014126    -0.960377
 H     4.021920     1.972832    -1.421209
 C     4.879969    -1.438393     0.229071
 H     5.130898    -2.395632     0.688470
 C     5.589665     0.587901    -0.901949
 H     6.393429     1.198739    -1.315922
 C     5.888887    -0.634824    -0.303400
Cl     7.533496    -1.167330    -0.225013
 C     0.669549     3.078666    -1.313507
 C     0.763231     3.719147    -2.547734
 H     1.643830     3.544351    -3.168521
 C    -0.444434     3.263036    -0.493493
 H    -0.504038     2.751021     0.468283
 C    -0.268895     4.555961    -2.963343
 H    -0.200742     5.055040    -3.932726
 C    -1.470131     4.104392    -0.920454
 H    -2.337995     4.257141    -0.275847
 C    -1.387521     4.749878    -2.153102
 H    -2.196197     5.405433    -2.482987
 C     1.744532     1.300687     2.140337
 C     2.684185     2.325116     2.003081
 H     2.916834     2.725246     1.017762
 C     1.418728     0.816885     3.410686
 H     0.669780     0.028163     3.497815
 C     3.304385     2.838936     3.141097
 H     4.040971     3.637780     3.026837
 C     2.040727     1.343374     4.538408
 H     1.778940     0.956748     5.526241
 C     2.992476     2.354545     4.409333
 H     3.483745     2.766064     5.293407
 C    -3.479830     0.817129    -0.221937
 H    -3.761219     0.420860    -1.200616
 C    -2.135536     0.709992     1.782937
 H    -1.357678     0.223608     2.370581
 C    -4.116606     1.955284     0.256549
 H    -4.891399     2.451836    -0.329133
 C    -2.758428     1.856526     2.266916
 H    -2.479962     2.279053     3.233595
 C    -3.740610     2.474960     1.494903
Cl    -4.482361     3.933376     2.062620
 C    -3.952579    -2.405164    -0.268237
 C    -5.034021    -2.557797    -1.137136
 H    -4.866270    -2.432679    -2.208612
 C    -4.120811    -2.561889     1.108485
 H    -3.267808    -2.450045     1.777535
 C    -6.291369    -2.864637    -0.625474
 H    -7.135830    -2.983694    -1.308550
 C    -5.387277    -2.863797     1.606816
 H    -5.519505    -2.983731     2.684739
 C    -6.474844    -3.015608     0.749167
 H    -7.462586    -3.253124     1.149750
 C    -0.124408    -2.914553     1.166422
 C    -0.191591    -3.993222     0.282384
 H    -1.006631    -4.045648    -0.441892
 C     0.905498    -2.828071     2.101439
 H     0.942901    -1.970077     2.772176
 C     0.790577    -4.979499     0.333622
 H     0.741672    -5.819453    -0.363183
 C     1.876605    -3.826303     2.150086
 H     2.683039    -3.754634     2.883952
 C     1.827480    -4.901364     1.263156
 H     2.593252    -5.679120     1.298504
