 100
scf done:    -2910.760223
 C    -0.480890    -3.161043    -1.359037
 H    -1.118932    -3.833076    -0.777630
 H    -0.881238    -2.920213    -2.347867
 C     0.911550    -3.153628    -1.127455
 H     1.338687    -3.817528    -0.370896
 H     1.605970    -2.890255    -1.929672
 H     0.353689    -0.787613    -1.708027
Rh     0.053790    -1.366992    -0.262934
 C    -1.816624     1.380405    -1.570043
 C    -3.408379    -0.918108    -0.934571
 C    -2.480150     0.700401     1.160509
 C     2.166606     0.586280     1.929685
 C     3.449403    -1.290570     0.149927
 C     2.501640     1.235198    -0.811166
 P     1.992181    -0.171502     0.245941
 P    -1.876694    -0.051141    -0.406730
 C    -0.230941    -2.150145     1.450917
 O    -0.364553    -2.675256     2.463925
 C    -1.822565     2.684624    -1.057556
 H    -1.961951     2.835920     0.013495
 C    -1.657800     1.188981    -2.964418
 C    -1.682577    -0.164042    -3.611344
 H    -2.716395    -0.514092    -3.760939
 H    -1.176197    -0.913692    -2.987350
 H    -1.190233    -0.134983    -4.593509
 C    -1.648733     3.792507    -1.882169
 H    -1.645550     4.795881    -1.450285
 C    -1.491715     2.319350    -3.774025
 H    -1.365517     2.173164    -4.850604
 C    -1.478332     3.609106    -3.250266
 H    -1.335835     4.466895    -3.911916
 C    -4.404287    -0.314144    -1.717083
 H    -4.257954     0.702276    -2.093014
 C    -3.631966    -2.215173    -0.471398
 H    -2.865991    -2.699167     0.138277
 C    -5.574004    -0.990116    -2.031432
 H    -6.349224    -0.529506    -2.646855
 C    -4.806350    -2.903879    -0.768918
 H    -4.941639    -3.915516    -0.385811
 C    -5.786783    -2.292879    -1.559127
 O    -6.949627    -2.873562    -1.913937
 C    -7.215224    -4.175675    -1.473895
 H    -7.247586    -4.238909    -0.371778
 H    -8.200237    -4.448463    -1.873452
 H    -6.466763    -4.896615    -1.847672
 C    -1.660153     0.695900     2.295518
 H    -0.662875     0.257965     2.231278
 C    -3.754734     1.266215     1.273705
 H    -4.428469     1.269627     0.413819
 C    -2.083274     1.250165     3.494055
 H    -1.436510     1.249281     4.373320
 C    -4.196665     1.827105     2.469001
 H    -5.197728     2.256365     2.516700
 C    -3.356787     1.823938     3.591741
 O    -3.691475     2.340628     4.789487
 C    -4.956950     2.917291     4.948775
 H    -5.766735     2.187516     4.772182
 H    -5.015387     3.266366     5.987546
 H    -5.104402     3.779501     4.274442
 C     2.912125    -0.057057     2.926647
 H     3.470092    -0.961762     2.683765
 C     1.477381     1.779385     2.252228
 C     0.692010     2.562751     1.245003
 H     0.211739     1.909229     0.506068
 H     1.340367     3.249537     0.678165
 H    -0.089427     3.154822     1.740849
 C     2.970267     0.438426     4.226326
 H     3.559107    -0.088257     4.980975
 C     1.547486     2.257161     3.566339
 H     1.004139     3.173126     3.815031
 C     2.278482     1.600939     4.551819
 H     2.308642     1.999507     5.568769
 C     4.574126    -1.026413    -0.644201
 H     4.627951    -0.102926    -1.222797
 C     3.414879    -2.505216     0.844324
 H     2.533713    -2.761567     1.437311
 C     5.625694    -1.929523    -0.722637
 H     6.497494    -1.728204    -1.348096
 C     4.470951    -3.411127     0.793587
 H     4.401104    -4.340649     1.358954
 C     5.590681    -3.126452     0.001940
 O     6.657602    -3.939204    -0.127517
 C     6.667325    -5.155168     0.565373
 H     5.833201    -5.810596     0.258134
 H     7.615394    -5.650357     0.319782
 H     6.616142    -5.006537     1.658661
 C     1.813393     1.544319    -1.989832
 H     0.971837     0.917837    -2.291648
 C     3.555595     2.068383    -0.421474
 H     4.095581     1.861808     0.506650
 C     2.161844     2.647329    -2.753634
 H     1.610336     2.900508    -3.660440
 C     3.923252     3.176452    -1.181526
 H     4.748395     3.803924    -0.843826
 C     3.220895     3.474130    -2.357676
 O     3.488341     4.526842    -3.154017
 C     4.530001     5.393501    -2.803384
 H     5.503787     4.873712    -2.768310
 H     4.570304     6.168042    -3.579772
 H     4.351739     5.877067    -1.826549
