 100
scf done:    -2910.896903
 C     1.278850    -1.368729    -3.014528
 H     2.180489    -0.887505    -3.402737
 H     1.431342    -2.394360    -2.667831
 C     0.001434    -0.953302    -3.440595
 H    -0.093515    -0.142013    -4.167739
 H    -0.837985    -1.653395    -3.439570
 H    -0.172639    -1.564393    -0.877623
Rh     0.365624    -0.175062    -1.433472
 C     1.041001    -1.142212     1.890302
 O     3.079731    -1.364312     0.172404
 O     2.346983     1.007208     0.894744
 C    -2.057186     2.320925    -1.075782
 O    -3.062382    -0.037756    -1.416281
 O    -1.941043     0.343970     0.860108
 P    -1.659574     0.565465    -0.759040
 P     1.705852    -0.430328     0.348155
 C     1.080053     1.489649    -2.064632
 O     1.532066     2.483392    -2.405941
 C     0.653708    -0.228394     2.880026
 H     0.836929     0.836290     2.728245
 C     0.773300    -2.516373     2.057750
 C     1.106249    -3.542261     1.017401
 H     2.184300    -3.749681     1.002844
 H     0.831753    -3.195908     0.009345
 H     0.575316    -4.483056     1.216940
 C     0.041263    -0.658046     4.051304
 H    -0.253847     0.069645     4.810000
 C     0.172029    -2.925837     3.253878
 H    -0.031713    -3.990390     3.397382
 C    -0.188268    -2.017445     4.244018
 H    -0.663934    -2.371914     5.161577
 C     3.920588    -1.214282    -0.904313
 C     4.204271     0.041913    -1.441546
 H     3.765513     0.933124    -0.996163
 C     4.504427    -2.374517    -1.437209
 C     4.207625    -3.721973    -0.857177
 H     4.349216    -3.727054     0.234141
 H     3.163567    -4.015639    -1.048262
 H     4.860450    -4.488558    -1.295924
 C     5.049502     0.155776    -2.542557
 H     5.256305     1.143997    -2.959329
 C     5.359420    -2.228705    -2.532814
 H     5.819650    -3.125556    -2.956429
 C     5.627820    -0.982444    -3.095778
 H     6.294101    -0.902740    -3.957363
 C     3.446211     1.219507     1.692854
 C     3.983792     0.248028     2.536059
 H     3.539182    -0.744849     2.580903
 C     4.010843     2.503540     1.602612
 C     3.422062     3.529341     0.683479
 H     3.356700     3.161936    -0.352165
 H     2.394318     3.788203     0.979288
 H     4.023498     4.448260     0.686959
 C     5.099080     0.554864     3.313162
 H     5.517954    -0.209508     3.971563
 C     5.126202     2.779230     2.396680
 H     5.576334     3.773903     2.336836
 C     5.672822     1.820731     3.248183
 H     6.547769     2.063103     3.855155
 C    -2.943318     2.647406    -2.109227
 H    -3.450318     1.844289    -2.644851
 C    -1.389503     3.343787    -0.364654
 C    -0.453714     3.062904     0.774338
 H     0.341045     2.356978     0.494892
 H    -0.982120     2.610391     1.627351
 H     0.018873     3.991910     1.120573
 C    -3.184081     3.975455    -2.449557
 H    -3.879416     4.213243    -3.257758
 C    -1.653880     4.669662    -0.723773
 H    -1.149264     5.469914    -0.175732
 C    -2.535651     4.990661    -1.752928
 H    -2.714011     6.037735    -2.009171
 C    -3.591999    -1.298621    -1.312988
 C    -2.830693    -2.454077    -1.472929
 H    -1.760176    -2.365107    -1.651951
 C    -4.976029    -1.363446    -1.075014
 C    -5.779419    -0.109431    -0.931207
 H    -5.410605     0.504692    -0.096267
 H    -5.708501     0.513769    -1.836261
 H    -6.837707    -0.340949    -0.751113
 C    -3.439454    -3.703893    -1.373864
 H    -2.835368    -4.606188    -1.494104
 C    -5.557501    -2.630045    -0.979693
 H    -6.631972    -2.696746    -0.788480
 C    -4.805063    -3.795996    -1.121721
 H    -5.288498    -4.772066    -1.040543
 C    -3.144088     0.468236     1.516456
 C    -3.767410     1.712208     1.641299
 H    -3.319516     2.588954     1.175096
 C    -3.691956    -0.683507     2.102761
 C    -3.029488    -2.020347     1.982482
 H    -3.581008    -2.665138     1.280279
 H    -1.999607    -1.926330     1.619627
 H    -3.006029    -2.529351     2.957049
 C    -4.964431     1.822763     2.343354
 H    -5.448903     2.797638     2.432721
 C    -4.895820    -0.539222     2.802310
 H    -5.338285    -1.427313     3.262247
 C    -5.534510     0.691558     2.923824
 H    -6.474288     0.768208     3.475311
