  96
scf done:    -3006.879200
 C    -0.065047    -3.262059    -2.706015
 H     0.390378    -3.167170    -3.696871
 H     0.447975    -3.964196    -2.042753
 C    -1.460527    -3.053057    -2.553388
 H    -2.067511    -2.795514    -3.427071
 H    -2.001384    -3.587127    -1.767057
 H    -0.358260    -2.256375    -0.436889
Rh    -0.396787    -1.362221    -1.744536
 C     1.688312    -0.762256     0.964019
 C     3.040458    -1.649643    -1.483725
 C     2.100571     1.129897    -1.270388
 C    -1.812096     1.617658    -0.383626
 C    -3.697036    -0.224242    -1.425762
 C    -2.406058    -0.745907     1.142586
 P    -2.018073    -0.198768    -0.589607
 P     1.598880    -0.634939    -0.859029
 C    -0.346118    -0.368838    -3.373790
 O    -0.275355     0.213334    -4.363854
 C     1.089891     0.223960     1.761058
 H     0.641272     1.104099     1.299336
 C     2.193437    -1.898242     1.603937
 H     2.603439    -2.723928     1.019877
 C     1.048890     0.098337     3.145180
 H     0.583034     0.891111     3.737433
 C     2.150105    -2.020858     2.991686
 H     2.554037    -2.921925     3.461775
 C     1.588876    -1.021006     3.792144
 C     1.567212    -1.134394     5.287272
 H     1.743072    -2.168010     5.616833
 H     2.349922    -0.503404     5.740081
 H     0.603721    -0.801880     5.701586
 H     2.871625    -2.664527    -1.093725
 H     2.835896    -1.718669    -2.562529
 C     4.436527    -1.166406    -1.241349
 C     5.076162    -0.364279    -2.197936
 H     4.567017    -0.142400    -3.139780
 C     5.140441    -1.465472    -0.065952
 H     4.680716    -2.092949     0.697893
 C     6.351446     0.152261    -1.985076
 H     6.846470     0.780136    -2.727801
 C     6.418715    -0.963323     0.162169
 H     6.966600    -1.193773     1.077554
 C     7.007340    -0.150296    -0.798881
 F     8.227375     0.337285    -0.583312
 H     2.846699     1.029413    -2.074404
 H     1.205376     1.573663    -1.724637
 C     2.607988     2.036816    -0.187768
 C     1.821089     3.117615     0.228544
 H     0.856993     3.294425    -0.252299
 C     3.834869     1.828744     0.453873
 H     4.468693     0.993793     0.156998
 C     2.228256     3.959478     1.260342
 H     1.610032     4.795874     1.591997
 C     4.259743     2.662544     1.483271
 H     5.214201     2.500732     1.987350
 C     3.446824     3.717363     1.879847
 F     3.845104     4.512568     2.873942
 C    -1.484375     2.366683    -1.524014
 H    -1.317689     1.858205    -2.476838
 C    -2.010264     2.307303     0.816266
 H    -2.286791     1.771654     1.725588
 C    -1.380780     3.751776    -1.468463
 H    -1.133829     4.308154    -2.377082
 C    -1.877913     3.694708     0.873925
 H    -2.034793     4.206379     1.827488
 C    -1.566384     4.444584    -0.263155
 C    -1.392423     5.932669    -0.196491
 H    -1.847264     6.352907     0.711373
 H    -0.322600     6.201238    -0.187301
 H    -1.841096     6.430386    -1.069019
 H    -3.495751     0.128248    -2.448783
 H    -3.962329    -1.288399    -1.515023
 C    -4.772704     0.581885    -0.767276
 C    -5.658095     0.008567     0.155521
 H    -5.607056    -1.062513     0.363487
 C    -4.896248     1.955979    -1.022813
 H    -4.226614     2.431596    -1.742117
 C    -6.620805     0.770313     0.814343
 H    -7.312600     0.322890     1.530137
 C    -5.851134     2.732651    -0.375466
 H    -5.946415     3.801635    -0.573707
 C    -6.701029     2.129455     0.543425
 F    -7.616251     2.868306     1.170186
 H    -1.629614    -0.289608     1.773164
 H    -3.376489    -0.314503     1.437344
 C    -2.371353    -2.232607     1.333346
 C    -3.383064    -3.073031     0.855562
 H    -4.252416    -2.649286     0.350087
 C    -1.274782    -2.822270     1.973356
 H    -0.469987    -2.188567     2.349214
 C    -3.305887    -4.456293     0.999648
 H    -4.091213    -5.115443     0.625676
 C    -1.180155    -4.201324     2.128832
 H    -0.322683    -4.660163     2.624261
 C    -2.198784    -5.004985     1.633816
 F    -2.116365    -6.328168     1.774497
