  78
scf done:    -2969.556245
 C    -0.797204    -0.726642    -3.448104
 H    -1.343120    -1.657074    -3.634304
 H    -1.363069     0.176870    -3.689818
 C     0.614296    -0.723812    -3.513279
 H     1.143379    -1.652724    -3.746595
 H     1.152728     0.183849    -3.798471
 H     0.046384     0.972418    -1.708102
Rh     0.005483    -0.604416    -1.438663
 C    -1.781483     0.855789     1.321089
 C    -3.149548     0.903463    -1.169338
 C    -2.930522    -1.539369     0.272114
 C     2.701631    -1.367665     0.757922
 C     3.327083     0.419453    -1.361021
 C     1.848145     1.350355     0.897894
 P     1.925207    -0.061426    -0.278298
 P    -1.916882    -0.097281    -0.242951
 C     0.041607    -2.490993    -1.189930
 O     0.080183    -3.631500    -1.078647
 C    -0.870700     0.409914     2.288847
 H    -0.273216    -0.482930     2.095593
 C    -2.512708     2.020837     1.575159
 H    -3.228778     2.388111     0.837685
 C    -0.696431     1.095170     3.483697
 H     0.017364     0.759898     4.237417
 C    -2.333334     2.732307     2.760684
 H    -2.886530     3.650674     2.965441
 C    -1.424186     2.261080     3.697756
 F    -1.233362     2.943809     4.822669
 C    -2.700933     1.932824    -2.006777
 H    -1.625549     2.083420    -2.131936
 C    -4.528426     0.696958    -1.035948
 H    -4.900704    -0.100741    -0.389667
 C    -3.600245     2.748647    -2.685729
 H    -3.262262     3.553054    -3.341481
 C    -5.440300     1.498025    -1.718919
 H    -6.517041     1.343630    -1.628552
 C    -4.962827     2.516978    -2.534012
 F    -5.828828     3.285446    -3.188242
 C    -3.468345    -1.686763     1.555233
 H    -3.292983    -0.919667     2.312174
 C    -3.181054    -2.533597    -0.684662
 H    -2.763856    -2.427652    -1.689400
 C    -4.231713    -2.806029     1.883739
 H    -4.651804    -2.937954     2.882515
 C    -3.951997    -3.647260    -0.374704
 H    -4.154504    -4.427267    -1.110659
 C    -4.464195    -3.771327     0.913112
 F    -5.193120    -4.840475     1.220406
 C     4.090670    -1.494688     0.893124
 H     4.754192    -0.823286     0.343615
 C     1.875966    -2.249197     1.466930
 H     0.791702    -2.183273     1.350151
 C     4.642536    -2.470425     1.719105
 H     5.722687    -2.583385     1.828348
 C     2.411507    -3.223381     2.303018
 H     1.775422    -3.917653     2.854678
 C     3.793422    -3.320960     2.417237
 F     4.315236    -4.254219     3.207028
 C     3.732308    -0.489350    -2.349121
 H     3.212489    -1.445682    -2.444219
 C     3.987479     1.647424    -1.260434
 H     3.687459     2.367709    -0.496640
 C     4.782297    -0.189961    -3.208069
 H     5.111528    -0.890034    -3.977983
 C     5.032123     1.967786    -2.127222
 H     5.553354     2.924735    -2.064611
 C     5.417398     1.042962    -3.087638
 F     6.416188     1.340221    -3.915037
 C     1.004222     2.430087     0.606598
 H     0.404411     2.402499    -0.305379
 C     2.590603     1.379626     2.084632
 H     3.250691     0.547966     2.338247
 C     0.899968     3.513080     1.471220
 H     0.234152     4.351389     1.260622
 C     2.489447     2.453844     2.965485
 H     3.052975     2.482951     3.899794
 C     1.639010     3.505390     2.648501
 F     1.520108     4.523884     3.494305
