 100
scf done:    -2910.892927
 C    -0.370037     3.569671     0.022488
 H    -1.137973     3.712202    -0.741192
 H    -0.604484     4.007497     0.997092
 C     0.970314     3.366032    -0.353036
 H     1.243849     3.356045    -1.411037
 H     1.783811     3.634072     0.326576
 H    -0.368445     1.381866    -1.311779
Rh     0.093657     1.443410     0.206314
 C     1.485043    -1.044399    -2.008909
 O     3.193808     0.574261    -0.807791
 O     2.005339    -1.173944     0.672405
 C    -2.450783     0.198386     2.329588
 O    -3.269067     1.366671     0.144852
 O    -2.166082    -0.940441    -0.140252
 P    -1.912599     0.519409     0.618412
 P     1.670523    -0.023047    -0.503042
 C     0.607761     1.555658     2.058707
 O     0.879057     1.613894     3.168143
 C     0.146172    -1.377536    -2.257083
 H    -0.626384    -0.976844    -1.600305
 C     2.503945    -1.565806    -2.843528
 C     3.972707    -1.296172    -2.692021
 H     4.330648    -1.537369    -1.682580
 H     4.205099    -0.235899    -2.861127
 H     4.539355    -1.899914    -3.413794
 C    -0.217292    -2.225922    -3.297400
 H    -1.269315    -2.474884    -3.455384
 C     2.105751    -2.405076    -3.893847
 H     2.880650    -2.813747    -4.547733
 C     0.775259    -2.740544    -4.125035
 H     0.518722    -3.404555    -4.954353
 C     3.787117     1.552815    -0.063898
 C     4.439672     2.580996    -0.745062
 H     4.435556     2.574496    -1.836582
 C     3.767799     1.546210     1.329911
 H     3.265641     0.738320     1.863064
 C     5.056329     3.600508    -0.030227
 H     5.557436     4.405394    -0.575411
 C     4.379080     2.584440     2.031277
 H     4.339412     2.577584     3.123880
 C     5.032760     3.628807     1.371479
 C     5.706895     4.734646     2.130884
 H     5.472493     5.719805     1.699527
 H     6.803767     4.623676     2.107956
 H     5.397552     4.744323     3.185514
 C     2.852569    -2.236375     0.486627
 C     4.188232    -2.138562     0.874372
 H     4.555500    -1.205830     1.305655
 C     2.372565    -3.420245    -0.072677
 H     1.325993    -3.480431    -0.375704
 C     5.039323    -3.225418     0.690631
 H     6.086696    -3.138173     0.992517
 C     3.237526    -4.494472    -0.255305
 H     2.855129    -5.414415    -0.706131
 C     4.584693    -4.419705     0.119858
 C     5.501952    -5.595179    -0.056238
 H     5.426486    -6.288884     0.798009
 H     6.552636    -5.279467    -0.129064
 H     5.253863    -6.167623    -0.962192
 C    -3.394150     1.045459     2.925179
 H    -3.862118     1.824344     2.321930
 C    -1.823167    -0.813640     3.088600
 C    -0.811306    -1.757550     2.508847
 H    -0.075515    -1.251786     1.867007
 H    -1.303720    -2.526004     1.891882
 H    -0.262738    -2.273959     3.308124
 C    -3.739540     0.896414     4.264084
 H    -4.479056     1.562450     4.714345
 C    -2.190714    -0.941457     4.433046
 H    -1.714292    -1.722391     5.031659
 C    -3.134346    -0.104122     5.020111
 H    -3.393125    -0.231574     6.074066
 C    -3.380800     2.018790    -1.052587
 C    -3.024690     1.419756    -2.259829
 H    -2.631446     0.402894    -2.268026
 C    -3.895882     3.314533    -1.042745
 H    -4.160695     3.770174    -0.086746
 C    -3.172556     2.132228    -3.447696
 H    -2.878159     1.657487    -4.387616
 C    -4.046632     4.007289    -2.238865
 H    -4.445856     5.025233    -2.218453
 C    -3.684207     3.433392    -3.464669
 C    -3.867831     4.182525    -4.752789
 H    -4.907889     4.107240    -5.112381
 H    -3.217270     3.785655    -5.545172
 H    -3.643011     5.252734    -4.632077
 C    -3.184818    -1.839699     0.020365
 C    -2.886735    -3.169474    -0.286288
 H    -1.878134    -3.416811    -0.624517
 C    -4.469076    -1.490956     0.435983
 H    -4.710687    -0.450819     0.650612
 C    -3.869721    -4.144909    -0.165802
 H    -3.624182    -5.181825    -0.412027
 C    -5.437657    -2.485797     0.556862
 H    -6.442137    -2.203121     0.883765
 C    -5.163390    -3.825420     0.266278
 C    -6.208893    -4.890095     0.431949
 H    -6.103646    -5.402748     1.402942
 H    -6.130013    -5.659048    -0.350999
 H    -7.223310    -4.467933     0.393165
