  82
scf done:    -3990.896485
 C     0.848852    -3.702070     0.583803
 H     1.563657    -4.075883    -0.154455
 H     1.234391    -3.646688     1.604834
 C    -0.533864    -3.821377     0.361555
 H    -0.904271    -4.292869    -0.552847
 H    -1.226165    -3.857028     1.205062
 H    -0.220776    -1.548634     1.534154
Rh     0.068806    -1.747795    -0.015842
 C     1.905645     0.744814     1.823369
 O     3.336651    -1.001037     0.558334
 O     2.050006     0.707311    -0.878773
 C    -2.055330     0.487159    -1.766013
 O    -3.293628    -1.295085    -0.333439
 O    -2.065160     0.574813     0.928841
 P    -1.804637    -0.546639    -0.296342
 P     1.800192    -0.369457     0.395947
 C     0.372467    -2.056757    -1.894551
 O     0.528827    -2.244893    -3.010762
 C     0.715828     1.245874     2.360596
 H    -0.247051     0.893481     1.983426
 C     3.134349     1.190364     2.328769
 H     4.064805     0.794221     1.920215
 C     0.746849     2.199262     3.374504
 H    -0.178191     2.597077     3.794712
 C     3.173822     2.137531     3.344832
 H     4.125726     2.493241     3.741886
 C     1.977463     2.642661     3.856405
Cl     2.024314     3.831851     5.110947
 C     3.779717    -2.062712    -0.180084
 C     4.413421    -3.106108     0.495369
 H     4.517899    -3.044586     1.579795
 C     3.625735    -2.112357    -1.566665
 H     3.140338    -1.287150    -2.089600
 C     4.886038    -4.206562    -0.211451
 H     5.381965    -5.037350     0.293469
 C     4.085262    -3.220053    -2.276167
 H     3.963755    -3.287481    -3.358544
 C     4.708793    -4.254297    -1.590538
 F     5.151781    -5.312895    -2.266898
 C     2.909627     1.774321    -0.797705
 C     4.272472     1.607585    -1.043963
 H     4.659365     0.618517    -1.293461
 C     2.398686     3.032366    -0.476611
 H     1.330534     3.136710    -0.278612
 C     5.128571     2.703083    -0.961089
 H     6.199147     2.603147    -1.148245
 C     3.249834     4.129322    -0.393277
 H     2.877266     5.122694    -0.137949
 C     4.607337     3.949178    -0.633814
 F     5.426812     4.995558    -0.550513
 C    -3.322042     0.756975    -2.298136
 H    -4.201165     0.268421    -1.875636
 C    -0.927502     1.109447    -2.313830
 H     0.067363     0.899288    -1.909813
 C    -3.463162     1.647543    -3.355845
 H    -4.445766     1.867536    -3.775951
 C    -1.061041     2.006320    -3.369587
 H    -0.186712     2.497244    -3.799654
 C    -2.330718     2.272308    -3.880774
Cl    -2.505973     3.389887    -5.188256
 C    -3.622517    -2.315618     0.517182
 C    -4.238340    -3.441189    -0.029542
 H    -4.416071    -3.473796    -1.105699
 C    -3.372590    -2.244431     1.889577
 H    -2.882118    -1.364826     2.308586
 C    -4.605064    -4.502273     0.791869
 H    -5.085592    -5.395176     0.388287
 C    -3.731029    -3.309728     2.712634
 H    -3.539584    -3.283476     3.786727
 C    -4.342256    -4.425722     2.155247
 F    -4.686839    -5.443169     2.943030
 C    -2.993023     1.581715     0.823133
 C    -4.336688     1.341259     1.109857
 H    -4.654561     0.342161     1.411264
 C    -2.568470     2.853694     0.438070
 H    -1.513133     3.015775     0.212739
 C    -5.261279     2.377304     1.002512
 H    -6.319071     2.219620     1.220068
 C    -3.488631     3.891248     0.330150
 H    -3.184768     4.894074     0.025551
 C    -4.826595     3.637862     0.610741
 F    -5.711745     4.626939     0.503933
