  64
scf done:    -1915.547628
 C     0.443897    -3.181455    -1.479869
 H     0.204300    -4.035629    -0.838930
 H    -0.320180    -2.948711    -2.226763
 C     1.799805    -2.863315    -1.744026
 H     2.593785    -3.474044    -1.303554
 H     2.068914    -2.396539    -2.695631
 H     0.551748    -0.644379    -1.667354
Rh     0.989177    -1.420318    -0.353041
 O    -2.002366    -0.115220    -0.831621
 C    -2.090564    -2.196624     1.010305
 C    -1.244898     0.466835     1.746518
 O     2.340138     1.686758     0.424189
 C     4.071367    -0.241382     0.741242
 C     3.316326     0.652374    -1.929433
 P     2.608680     0.169570    -0.288748
 P    -1.075542    -0.775471     0.402037
 C     1.513035    -2.355499     1.230984
 O     1.816479    -2.913323     2.187645
 C    -3.345393     0.111945    -0.770630
 C    -3.851056     1.271672    -0.176660
 H    -3.157394     1.999075     0.247139
 C    -4.214566    -0.808183    -1.362378
 H    -3.793939    -1.692873    -1.844379
 C    -5.227860     1.485024    -0.146479
 H    -5.620324     2.390843     0.322246
 C    -5.588651    -0.584800    -1.327659
 H    -6.264518    -1.310045    -1.787292
 C    -6.101871     0.557420    -0.712675
 H    -7.180008     0.729414    -0.684698
 H    -1.363283    -2.835737     1.537684
 C    -3.312632    -1.945489     1.881568
 H    -4.050440    -1.292979     1.394114
 H    -3.037068    -1.486290     2.842741
 H    -2.349093    -2.758816     0.097403
 H    -3.815034    -2.898215     2.110748
 H    -2.295990     0.521444     2.068760
 C    -0.316950     0.172956     2.914723
 H     0.732391     0.175247     2.583514
 H    -0.519429    -0.806821     3.376472
 H    -0.991249     1.436967     1.295693
 H    -0.426350     0.938674     3.697068
 C     1.229367     2.439957     0.257188
 C     0.389558     2.336965    -0.856823
 H     0.593889     1.602485    -1.635979
 C     0.933886     3.363450     1.267685
 H     1.602038     3.421834     2.128910
 C    -0.741655     3.147006    -0.945087
 H    -1.400186     3.042663    -1.810267
 C    -0.194484     4.169965     1.164891
 H    -0.417228     4.885705     1.960076
 C    -1.042619     4.064294     0.059636
 H    -1.930233     4.695969    -0.017644
 H     4.408885    -1.219914     0.359476
 C     5.212980     0.756967     0.824759
 H     4.847421     1.747595     1.130987
 H     5.734200     0.865503    -0.137646
 H     3.652398    -0.441584     1.741085
 H     5.958766     0.426026     1.563863
 H     2.527564     0.434445    -2.665074
 C     3.821320     2.078614    -2.089525
 H     4.618237     2.327413    -1.376927
 H     3.010714     2.806672    -1.941466
 H     4.113258    -0.087293    -2.122726
 H     4.219350     2.226843    -3.105353
