  92
scf done:    -2681.919419
 C     0.231072    -3.074904    -1.796667
 H    -0.098822    -3.920823    -1.185447
 H    -0.429084    -2.850492    -2.638844
 C     1.604630    -2.744613    -1.860678
 H     2.333972    -3.326311    -1.288681
 H     2.010502    -2.294534    -2.770296
 H     0.264152    -0.528430    -1.980585
Rh     0.557021    -1.298606    -0.612822
 O    -1.862174     0.904860    -0.941097
 C    -2.778048    -1.648477    -1.167491
 C    -2.258234    -0.420575     1.451549
 O     2.817685     0.300134     1.283593
 C     3.139428     1.103214    -1.317927
 C     1.099673     2.074693     0.439246
 P     1.887442     0.509493    -0.105642
 P    -1.590031    -0.603338    -0.250166
 C     0.887345    -2.350328     0.953180
 O     1.038753    -3.051569     1.845551
 C    -2.774428     1.855483    -0.583160
 C    -3.747755     2.236882    -1.510885
 H    -3.781348     1.742787    -2.482562
 C    -2.700669     2.496197     0.655524
 H    -1.911439     2.226464     1.356386
 C    -4.660693     3.238022    -1.186995
 H    -5.419079     3.530257    -1.917312
 C    -3.625444     3.487112     0.972848
 H    -3.561429     3.980510     1.945564
 C    -4.611653     3.859368     0.060323
 H    -5.332663     4.639195     0.315289
 C    -3.203582    -1.215553    -2.427854
 H    -2.878087    -0.238079    -2.786132
 C    -3.123746    -2.940547    -0.715993
 C    -2.652029    -3.486508     0.599252
 H    -3.177083    -3.024112     1.449897
 H    -1.580051    -3.293154     0.751074
 H    -2.814520    -4.571720     0.651324
 C    -4.010863    -2.018152    -3.228473
 H    -4.336406    -1.659632    -4.207820
 C    -3.936758    -3.729016    -1.537618
 H    -4.213489    -4.729371    -1.193094
 C    -4.389010    -3.279093    -2.775600
 H    -5.021820    -3.922031    -3.391863
 C    -1.271951    -0.295209     2.439195
 H    -0.224355    -0.350838     2.136886
 C    -3.624010    -0.327353     1.812476
 C    -4.766547    -0.435942     0.845644
 H    -4.948624    -1.480782     0.550121
 H    -4.588815     0.126432    -0.078797
 H    -5.686347    -0.048752     1.304702
 C    -1.596272    -0.084027     3.774473
 H    -0.805559     0.014727     4.521249
 C    -3.925304    -0.122777     3.165086
 H    -4.976039    -0.045851     3.456932
 C    -2.936750    -0.001339     4.137656
 H    -3.218659     0.162747     5.180664
 C     3.544170    -0.818764     1.553987
 C     3.705006    -1.155691     2.899945
 H     3.237885    -0.524224     3.658151
 C     4.125483    -1.606563     0.557561
 H     4.008570    -1.335594    -0.491954
 C     4.436697    -2.286190     3.247728
 H     4.553389    -2.547841     4.302102
 C     4.850040    -2.741188     0.919633
 H     5.297732    -3.358038     0.136676
 C     5.007599    -3.088934     2.259449
 H     5.574467    -3.980975     2.534001
 C     3.117561     0.484241    -2.572115
 H     2.366904    -0.289210    -2.745657
 C     4.087090     2.118386    -1.049195
 C     4.164319     2.866489     0.249739
 H     4.104666     2.193747     1.114115
 H     3.327089     3.576315     0.342843
 H     5.100385     3.438744     0.307083
 C     4.010447     0.845016    -3.575997
 H     3.970723     0.351068    -4.549388
 C     4.984197     2.454271    -2.070985
 H     5.728272     3.231302    -1.875426
 C     4.953096     1.835749    -3.318380
 H     5.670240     2.130817    -4.088436
 C     1.048808     2.373224     1.806893
 H     1.486738     1.673226     2.518917
 C     0.537002     2.969046    -0.496498
 C     0.513859     2.700574    -1.972231
 H     0.315555     1.640998    -2.185821
 H     1.473523     2.964798    -2.443973
 H    -0.277719     3.292920    -2.452145
 C     0.488707     3.563842     2.260934
 H     0.466532     3.780869     3.331415
 C    -0.010202     4.164123    -0.014458
 H    -0.449640     4.861854    -0.732035
 C    -0.028114     4.473084     1.341942
 H    -0.466457     5.414919     1.680214
