  70
scf done:    -3907.666281
 C     0.297952    -3.727222     0.973409
 H     1.066714    -4.314115     0.460012
 H     0.441909    -3.658159     2.054401
 C    -1.010052    -3.684317     0.431164
 H    -1.222112    -4.235481    -0.490799
 H    -1.871884    -3.570480     1.094393
 H    -0.676373    -1.416030     1.513375
Rh    -0.058225    -1.783937     0.084157
 C     1.761684     0.026141     2.546181
 C     3.381375    -0.948485     0.422845
 C     1.713249     1.281460    -0.038825
 C    -1.801108     0.000296    -2.442245
 C    -3.445283    -0.876914    -0.294233
 C    -1.669110     1.323803     0.143329
 P    -1.720009    -0.341023    -0.622733
 P     1.662754    -0.376875     0.748082
 C     0.637964    -2.239587    -1.628038
 O     1.040971    -2.499498    -2.671531
 H     0.852600     0.602790     2.782164
 C     1.852928    -1.213427     3.418186
 H     2.740066    -1.816240     3.169720
 H     0.965473    -1.847405     3.282940
 H     2.630764     0.684956     2.707935
 H     1.922434    -0.935371     4.480467
 C     3.626735    -2.310065     0.224319
 H     2.782387    -3.002746     0.225496
 C     4.463105    -0.057907     0.411625
 H     4.292317     1.013089     0.549805
 C     4.921580    -2.782770     0.024620
 H     5.113043    -3.845577    -0.131211
 C     5.760682    -0.514549     0.208418
 H     6.603903     0.177884     0.192279
 C     5.981985    -1.879333     0.017377
Cl     7.594696    -2.453080    -0.238483
 C     1.731507     2.484013     0.672879
 H     1.730219     2.486895     1.763459
 C     1.702730     1.333277    -1.440337
 H     1.690309     0.402520    -2.014270
 C     1.721357     3.710552     0.010767
 H     1.698917     4.645431     0.573166
 C     1.701663     2.547907    -2.114887
 H     1.690333     2.585216    -3.205542
 C     1.697143     3.734537    -1.379413
Cl     1.609796     5.254106    -2.206567
 H    -1.615732    -0.977205    -2.914727
 C    -3.077012     0.620103    -2.989396
 H    -3.338320     1.562331    -2.485911
 H    -3.930865    -0.060755    -2.862195
 H    -0.907939     0.606543    -2.669657
 H    -2.972759     0.831307    -4.064991
 C    -3.801510    -2.178069    -0.671994
 H    -3.041368    -2.841660    -1.090078
 C    -4.426163    -0.044638     0.254745
 H    -4.177186     0.977276     0.547976
 C    -5.103635    -2.639635    -0.515090
 H    -5.379525    -3.652628    -0.812339
 C    -5.730750    -0.499714     0.432990
 H    -6.494155     0.148417     0.866475
 C    -6.063280    -1.795503     0.044340
Cl    -7.683523    -2.365799     0.259338
 C    -1.538824     2.507167    -0.590023
 H    -1.504820     2.487414    -1.679358
 C    -1.679685     1.405339     1.543858
 H    -1.761428     0.487866     2.133062
 C    -1.416412     3.739459     0.047275
 H    -1.282778     4.653591    -0.533279
 C    -1.566731     2.628888     2.194264
 H    -1.570114     2.687393     3.284061
 C    -1.424162     3.792193     1.437308
Cl    -1.198757     5.312804     2.235455
