  74
scf done:    -2767.329267
 C    -0.312025    -2.999651    -2.064375
 H    -0.791123    -3.934801    -1.758919
 H    -0.926507    -2.356792    -2.700148
 C     1.094225    -2.923481    -2.124194
 H     1.699929    -3.794778    -1.860443
 H     1.581163    -2.221519    -2.805070
 H     0.287800    -0.609967    -1.352959
Rh     0.404669    -1.846967    -0.360113
 C    -2.439992    -1.430172     1.786969
 O    -1.171269     0.753126     0.826963
 O    -2.607985    -0.585128    -0.797553
 C     3.046061    -1.274059     1.907293
 O     3.454563    -0.766281    -0.790113
 O     2.156421     0.872382     0.725267
 P     2.236126    -0.746216     0.350564
 P    -1.443496    -0.826750     0.371141
 C     0.517050    -3.355269     0.814494
 O     0.581298    -4.264714     1.510071
 H    -2.829854    -2.421484     1.504179
 C    -1.613897    -1.504273     3.062419
 H    -1.180006    -0.525015     3.315328
 H    -0.783455    -2.218433     2.965569
 H    -3.313253    -0.768392     1.906782
 H    -2.236265    -1.830630     3.908580
 C    -2.123108     1.733497     0.822935
 C    -2.775060     2.086678     2.003977
 H    -2.537466     1.556190     2.927705
 C    -2.401349     2.414595    -0.364171
 H    -1.873820     2.123558    -1.272751
 C    -3.712889     3.118693     2.000577
 H    -4.235482     3.417093     2.911049
 C    -3.332263     3.447139    -0.373156
 H    -3.557505     4.000076    -1.286633
 C    -3.980331     3.784977     0.811111
 F    -4.873181     4.773948     0.805920
 C    -3.901132    -1.026711    -0.750071
 C    -4.924672    -0.162057    -0.357865
 H    -4.679495     0.860942    -0.067908
 C    -4.194237    -2.336343    -1.135974
 H    -3.378604    -2.990070    -1.451883
 C    -6.243097    -0.610256    -0.346611
 H    -7.062339     0.045716    -0.046980
 C    -5.510799    -2.788550    -1.121254
 H    -5.767075    -3.806944    -1.418572
 C    -6.520040    -1.918633    -0.724936
 F    -7.781225    -2.348412    -0.709654
 H     3.526157    -2.236481     1.658436
 C     3.995061    -0.328981     2.628364
 H     3.510888     0.637917     2.820471
 H     4.910939    -0.138022     2.054192
 H     2.189895    -1.529650     2.553789
 H     4.289429    -0.764994     3.595189
 C     4.737518    -0.334424    -0.578374
 C     5.744620    -1.286071    -0.412605
 H     5.482658    -2.345121    -0.449085
 C     5.045590     1.027246    -0.561758
 H     4.254538     1.763447    -0.709132
 C     7.059790    -0.881048    -0.202569
 H     7.865421    -1.604966    -0.068094
 C     6.359489     1.435951    -0.350556
 H     6.627253     2.493777    -0.328441
 C     7.350004     0.477993    -0.167733
 F     8.606743     0.870362     0.036389
 C     1.590897     1.862507    -0.021958
 C     1.072290     2.957288     0.673118
 H     1.104325     2.947685     1.763422
 C     1.555930     1.837973    -1.417719
 H     1.978512     0.992663    -1.961913
 C     0.508694     4.022069    -0.017851
 H     0.082116     4.878576     0.506708
 C     0.980536     2.902454    -2.112651
 H     0.935047     2.903020    -3.203169
 C     0.461401     3.978198    -1.407025
 F    -0.106023     4.987066    -2.071985
