 100
scf done:    -2910.740979
 C    -0.226025     0.241933    -3.469355
 H    -0.766291    -0.511258    -4.051986
 H    -0.634513     1.251583    -3.567042
 C     1.152046     0.056133    -3.205171
 H     1.661837    -0.838499    -3.575963
 H     1.813670     0.915033    -3.066447
 H     0.217221     1.244088    -1.215725
Rh     0.074869    -0.315952    -1.392625
 C    -1.682279     1.854752     0.514026
 C    -3.452171     0.138961    -1.139934
 C    -2.529409    -0.842876     1.231585
 C     1.922748    -1.716900     1.333638
 C     3.454610    -0.750214    -0.890468
 C     2.224337     1.119301     1.086262
 P     1.915614    -0.374982     0.062817
 P    -1.872757     0.164139    -0.190452
 C    -0.091744    -2.185105    -1.749912
 O    -0.142022    -3.289727    -2.066788
 C    -1.036325     1.969231     1.751948
 H    -0.698808     1.070277     2.270631
 C    -1.985232     3.027180    -0.211494
 C    -2.522231     3.009827    -1.612550
 H    -3.603072     2.806466    -1.644338
 H    -2.032135     2.230694    -2.213430
 H    -2.350185     3.981204    -2.097908
 C    -0.793492     3.208811     2.334753
 H    -0.298844     3.260401     3.305634
 C    -1.719348     4.264519     0.388187
 H    -1.961028     5.173792    -0.170268
 C    -1.154737     4.367588     1.656188
 H    -0.968551     5.350322     2.096243
 C    -3.481953    -0.521416    -2.365249
 H    -2.538151    -0.916401    -2.746691
 C    -4.654569     0.662727    -0.620243
 O    -4.569231     1.305183     0.558041
 C    -5.722507     1.816880     1.159591
 H    -6.199936     2.593263     0.536335
 H    -5.403353     2.270194     2.106547
 H    -6.459402     1.022734     1.371568
 C    -4.668712    -0.669778    -3.083430
 H    -4.668569    -1.190372    -4.043235
 C    -5.847444     0.519521    -1.336081
 H    -6.780314     0.926026    -0.944644
 C    -5.846900    -0.146091    -2.562685
 H    -6.786285    -0.250300    -3.111597
 C    -2.912270    -0.320220     2.468791
 H    -2.818869     0.750713     2.642828
 C    -2.750172    -2.221227     1.008604
 O    -2.454740    -2.686163    -0.218738
 C    -2.756998    -4.014510    -0.547930
 H    -2.172656    -4.726789     0.059509
 H    -2.479644    -4.144287    -1.599799
 H    -3.833047    -4.222781    -0.421875
 C    -3.430847    -1.125257     3.482386
 H    -3.711157    -0.679901     4.439264
 C    -3.265654    -3.036043     2.023054
 H    -3.420164    -4.100297     1.846709
 C    -3.595083    -2.487088     3.260302
 H    -3.995821    -3.133370     4.045046
 C     0.679245    -2.310099     1.578580
 H    -0.175865    -1.967869     0.995105
 C     3.052969    -2.144615     2.070420
 C     4.427503    -1.569736     1.893154
 H     5.049815    -1.789991     2.772177
 H     4.411789    -0.481578     1.743918
 H     4.923955    -2.005790     1.011661
 C     0.517427    -3.307294     2.535928
 H    -0.473768    -3.730715     2.713889
 C     2.871084    -3.160510     3.017539
 H     3.738662    -3.498288     3.591525
 C     1.626407    -3.738944     3.255822
 H     1.527275    -4.523233     4.010611
 C     3.396080    -1.917137    -1.658767
 H     2.491252    -2.527475    -1.614773
 C     4.632485     0.020577    -0.951284
 O     4.729440     1.071548    -0.117600
 C     5.758489     2.002757    -0.270137
 H     6.747572     1.571613    -0.033931
 H     5.545737     2.813087     0.439878
 H     5.783284     2.416555    -1.293339
 C     4.444689    -2.315721    -2.482617
 H     4.363454    -3.236055    -3.064179
 C     5.674046    -0.352482    -1.810902
 H     6.576950     0.255908    -1.868914
 C     5.579360    -1.514576    -2.571145
 H     6.404982    -1.793864    -3.230174
 C     2.259282     1.065627     2.480409
 H     2.154661     0.099932     2.978667
 C     2.332086     2.379276     0.461619
 O     2.331056     2.390401    -0.883101
 C     1.937685     3.556415    -1.554861
 H     0.999678     3.959258    -1.136764
 H     1.770331     3.272081    -2.601877
 H     2.719174     4.336192    -1.520118
 C     2.424494     2.218221     3.249751
 H     2.459754     2.144620     4.338786
 C     2.474556     3.537052     1.228846
 H     2.547756     4.509713     0.741350
 C     2.534083     3.452055     2.619120
 H     2.655970     4.364898     3.207547
