  92
scf done:    -3078.693036
 C    -1.732413    -2.322441    -3.115601
 H    -2.475288    -3.083360    -2.858595
 H    -2.134899    -1.488868    -3.699016
 C    -0.369916    -2.692952    -3.275913
 H    -0.076341    -3.739527    -3.146879
 H     0.262154    -2.137367    -3.974240
 H    -0.362519    -0.337653    -2.315184
Rh    -0.610113    -1.631086    -1.414355
 O    -0.818531     1.211069     0.062706
 C    -3.084197     0.787708    -1.548668
 C    -2.879671    -0.285724     1.138365
 O     1.673220    -0.641015     0.980722
 C     2.770442    -2.355781    -0.826711
 C     2.128512     0.482439    -1.392451
 P     1.461606    -1.065319    -0.636048
 P    -1.864788    -0.020150    -0.397066
 C    -0.878299    -3.282108    -0.497807
 O    -0.995563    -4.333494    -0.051338
 C    -0.978933     2.410600     0.696853
 C    -1.493353     2.522491     1.992211
 H    -1.820116     1.634928     2.529353
 C    -0.492738     3.547695     0.046756
 H    -0.073257     3.439399    -0.954083
 C    -1.560267     3.773369     2.603850
 H    -1.969196     3.850548     3.614367
 C    -0.559575     4.790292     0.668089
 H    -0.189086     5.673197     0.142083
 C    -1.102929     4.913140     1.946651
 H    -1.160219     5.890510     2.429963
 H    -2.733178     0.512864    -2.551232
 H    -4.027887     0.241442    -1.389413
 C    -3.258492     2.271338    -1.454094
 C    -3.970698     2.879484    -0.412125
 H    -4.463666     2.264283     0.344144
 C    -2.662813     3.098048    -2.414091
 H    -2.110602     2.643060    -3.240484
 C    -4.055040     4.263417    -0.305082
 H    -4.589362     4.742597     0.516571
 C    -2.747486     4.484589    -2.331774
 H    -2.280106     5.133340    -3.074687
 C    -3.430776     5.050662    -1.264366
 F    -3.491220     6.377105    -1.157723
 H    -2.154151    -0.544789     1.924787
 H    -3.361132     0.663046     1.413000
 C    -3.894303    -1.374153     0.971727
 C    -5.197143    -1.100991     0.534791
 H    -5.506799    -0.067427     0.357457
 C    -3.549091    -2.706437     1.227839
 H    -2.550281    -2.933195     1.602920
 C    -6.122182    -2.122526     0.335643
 H    -7.139653    -1.916529    -0.000973
 C    -4.458032    -3.740774     1.030516
 H    -4.188331    -4.780601     1.222675
 C    -5.735408    -3.434818     0.578069
 F    -6.613171    -4.417575     0.385573
 C     0.880812    -1.014446     2.014424
 C     0.499740    -0.030830     2.930919
 H     0.828717     0.995869     2.767254
 C     0.485852    -2.339655     2.214340
 H     0.821537    -3.117382     1.528915
 C    -0.294882    -0.369836     4.022540
 H    -0.588383     0.407250     4.732830
 C    -0.319651    -2.667597     3.303983
 H    -0.626207    -3.706598     3.446964
 C    -0.721455    -1.686022     4.208685
 H    -1.351909    -1.947049     5.061029
 H     2.420913    -3.188774    -0.192754
 H     2.649864    -2.707299    -1.863611
 C     4.200687    -2.007752    -0.538749
 C     5.161567    -2.101924    -1.551165
 H     4.862497    -2.443477    -2.546026
 C     4.613651    -1.582184     0.732094
 H     3.880914    -1.492448     1.534902
 C     6.493639    -1.764256    -1.321378
 H     7.247428    -1.832519    -2.107806
 C     5.936906    -1.234693     0.975996
 H     6.262814    -0.881767     1.955819
 C     6.861314    -1.323453    -0.058225
 F     8.127497    -0.973665     0.167017
 H     2.362056     0.204926    -2.433038
 H     1.235501     1.123433    -1.429243
 C     3.268581     1.196501    -0.732176
 C     3.055546     1.926398     0.444703
 H     2.050637     1.977824     0.866249
 C     4.555886     1.180645    -1.278039
 H     4.742642     0.631874    -2.203199
 C     4.101326     2.587704     1.080244
 H     3.943781     3.156948     1.998110
 C     5.614461     1.835941    -0.655879
 H     6.624926     1.811100    -1.067272
 C     5.373633     2.525104     0.525134
 F     6.382349     3.149617     1.134419
