  96
scf done:    -2982.585209
 C     1.012116    -2.536492     2.735899
 H     1.636245    -3.400975     2.489364
 H     1.470103    -1.835162     3.438783
 C    -0.396479    -2.658785     2.679092
 H    -0.836671    -3.616541     2.383851
 H    -1.025241    -2.060903     3.344000
 H     0.136867    -0.275067     2.022786
Rh     0.282528    -1.474556     0.995762
 O     2.956126     0.545773     1.548319
 C     3.578985    -1.267197    -0.256205
 C     2.003557     0.973511    -0.924698
 O    -1.400856    -0.366374    -1.623074
 C    -3.184130    -1.064993     0.324336
 C    -1.692761     1.347552     0.489516
 P    -1.502852    -0.415330     0.066350
 P     2.146218    -0.320731     0.354537
 C     0.340302    -2.924045    -0.260680
 O     0.315846    -3.768478    -1.036171
 C     2.401002     1.078211     2.671459
 C     1.311605     1.951974     2.622756
 H     0.838031     2.185702     1.668012
 C     2.995793     0.764634     3.895806
 H     3.841564     0.074526     3.901698
 C     0.832284     2.517000     3.803726
 H    -0.017165     3.201572     3.755087
 C     2.507364     1.333630     5.068610
 H     2.976639     1.085053     6.023745
 C     1.424560     2.212964     5.028013
 H     1.042743     2.658464     5.949294
 C     3.716059    -2.619016     0.090402
 H     2.941952    -3.090633     0.699268
 C     4.577404    -0.674487    -1.033617
 H     4.488660     0.375857    -1.320967
 C     4.812824    -3.354428    -0.327386
 H     4.926066    -4.408165    -0.066476
 C     5.685861    -1.401054    -1.461624
 H     6.443231    -0.908350    -2.071654
 C     5.808765    -2.751269    -1.109007
 O     6.835495    -3.539477    -1.475697
 C     7.860728    -2.997511    -2.260594
 H     8.375757    -2.166678    -1.746960
 H     8.581470    -3.805706    -2.437953
 H     7.484943    -2.634881    -3.233540
 C     1.412498     0.636149    -2.152749
 H     1.056683    -0.382165    -2.323293
 C     2.421617     2.287344    -0.719875
 H     2.897441     2.558939     0.224582
 C     1.231119     1.592176    -3.137511
 H     0.758751     1.343668    -4.089579
 C     2.233904     3.264208    -1.700708
 H     2.563920     4.284774    -1.504621
 C     1.630832     2.920368    -2.915207
 O     1.392139     3.788022    -3.918648
 C     1.756193     5.128301    -3.752129
 H     2.843767     5.244681    -3.599533
 H     1.469744     5.650328    -4.673880
 H     1.229248     5.594922    -2.900124
 C    -2.468224    -0.234456    -2.464620
 C    -2.844803     1.020898    -2.946063
 H    -2.289792     1.904305    -2.630191
 C    -3.161340    -1.378183    -2.868920
 H    -2.845055    -2.348353    -2.481559
 C    -3.925941     1.126405    -3.820139
 H    -4.218499     2.110282    -4.195173
 C    -4.241343    -1.261705    -3.738295
 H    -4.784922    -2.158562    -4.044830
 C    -4.631266    -0.009376    -4.214227
 H    -5.480615     0.079866    -4.895154
 C    -4.340087    -0.308656     0.058873
 H    -4.250115     0.736738    -0.244511
 C    -3.334453    -2.399467     0.702771
 H    -2.438185    -2.985546     0.919013
 C    -5.596811    -0.876486     0.165932
 H    -6.500797    -0.301815    -0.043051
 C    -4.593917    -2.986041     0.812211
 H    -4.672591    -4.030736     1.113216
 C    -5.735501    -2.222775     0.540698
 O    -6.994269    -2.688850     0.615885
 C    -7.202282    -4.024800     0.982881
 H    -6.815398    -4.237001     1.994944
 H    -8.287427    -4.187060     0.976412
 H    -6.732131    -4.723811     0.269163
 C    -2.327120     1.713851     1.687473
 H    -2.818839     0.952318     2.298236
 C    -1.057676     2.339415    -0.257094
 H    -0.537142     2.075192    -1.178620
 C    -2.326893     3.030128     2.117009
 H    -2.815905     3.323880     3.047766
 C    -1.044498     3.668452     0.168198
 H    -0.522234     4.408943    -0.437524
 C    -1.673861     4.019528     1.366369
 O    -1.689448     5.264157     1.883322
 C    -0.999988     6.279095     1.209509
 H    -1.413510     6.457684     0.201040
 H    -1.118326     7.191569     1.807406
 H     0.076263     6.049154     1.116299
