 106
scf done:    -2989.321370
 C    -1.140759    -0.861954    -3.565665
 H    -1.715146    -1.783335    -3.705869
 H    -1.709303     0.048717    -3.770898
 C     0.267723    -0.873228    -3.763131
 H     0.761951    -1.805475    -4.056051
 H     0.769853     0.019959    -4.146769
 H    -0.162026     0.819818    -1.899505
Rh    -0.162610    -0.749774    -1.660507
 C    -1.975672     1.511981     0.362395
 C    -3.614896    -0.490669    -0.963094
 C    -2.063861    -1.308033     1.321405
 C     2.575660    -1.594241     0.340410
 C     3.118189     0.650906    -1.435811
 C     1.385160     1.114103     0.807915
 P     1.729520    -0.166539    -0.472082
 P    -1.916434    -0.255752    -0.212210
 C     0.030551    -2.648772    -1.564312
 O     0.265578    -3.766544    -1.683765
 C    -1.733948     1.988871     1.668209
 O    -1.585198     1.074163     2.650538
 C    -1.252868     1.484204     3.946586
 H    -1.170742     0.568270     4.546489
 H    -0.287827     2.020324     3.970762
 H    -2.034539     2.125337     4.388766
 C    -2.098126     2.488403    -0.652243
 O    -2.390885     2.030672    -1.885235
 C    -2.160227     2.849049    -3.000516
 H    -2.292185     2.213716    -3.885235
 H    -1.133143     3.247358    -2.992379
 H    -2.879649     3.684505    -3.052794
 C    -1.944523     3.854801    -0.397299
 H    -2.025157     4.581242    -1.204248
 C    -1.606105     3.357946     1.936369
 H    -1.419773     3.705768     2.950853
 C    -1.701443     4.278070     0.901074
 H    -1.587905     5.343743     1.112318
 H    -3.677342    -1.571169    -1.157099
 H    -3.566168     0.010711    -1.936361
 C    -4.763740     0.008099    -0.143719
 C    -5.190646     1.339306    -0.260803
 H    -4.703254     1.986566    -0.991732
 C    -5.424769    -0.812577     0.781041
 H    -5.133239    -1.860570     0.881078
 C    -6.224083     1.835454     0.528498
 H    -6.536205     2.876888     0.416970
 C    -6.460350    -0.318916     1.572804
 H    -6.960009    -0.981912     2.283549
 C    -6.861136     1.010149     1.454521
 H    -7.672529     1.398879     2.074506
 H    -3.037508    -1.111298     1.795644
 H    -1.296337    -0.936123     2.004694
 C    -1.825213    -2.769925     1.085557
 C    -2.761635    -3.623448     0.487729
 H    -3.729559    -3.236019     0.165268
 C    -0.605334    -3.323893     1.494663
 H     0.133997    -2.668178     1.954213
 C    -2.481164    -4.975813     0.299608
 H    -3.226965    -5.619991    -0.172639
 C    -0.319869    -4.672804     1.311322
 H     0.650860    -5.063816     1.625367
 C    -1.259046    -5.506449     0.708137
 H    -1.039152    -6.565005     0.551397
 C     3.187110    -2.541635    -0.508297
 O     3.175298    -2.237695    -1.819236
 C     3.505221    -3.217278    -2.766331
 H     3.302328    -2.774807    -3.749601
 H     4.571571    -3.497181    -2.713067
 H     2.879965    -4.116490    -2.640547
 C     2.503325    -1.911277     1.710823
 O     1.812123    -1.057571     2.497703
 C     1.905414    -1.160287     3.890986
 H     1.381724    -0.286989     4.300022
 H     2.955146    -1.134080     4.228444
 H     1.422071    -2.078291     4.268314
 C     3.089226    -3.075338     2.222477
 H     3.040648    -3.297267     3.287660
 C     3.754503    -3.719294    -0.010531
 H     4.225390    -4.435975    -0.681778
 C     3.710743    -3.966638     1.355591
 H     4.160212    -4.879462     1.753259
 H     3.217014     0.057088    -2.352324
 H     4.049785     0.543420    -0.862079
 C     2.859040     2.096415    -1.744406
 C     3.520370     3.112252    -1.041489
 H     4.241187     2.846430    -0.265362
 C     1.950675     2.469931    -2.745069
 H     1.433126     1.691429    -3.306124
 C     3.268024     4.455592    -1.311558
 H     3.793883     5.226436    -0.742997
 C     1.703661     3.812590    -3.022389
 H     1.004712     4.080377    -3.819312
 C     2.353895     4.812877    -2.300549
 H     2.158371     5.865963    -2.517318
 H     0.634848     0.666049     1.472777
 H     0.846349     1.876657     0.223285
 C     2.458945     1.785238     1.618172
 C     2.202586     3.075731     2.103763
 H     1.249050     3.550655     1.856340
 C     3.695207     1.203916     1.920768
 H     3.932948     0.207820     1.544122
 C     3.144814     3.761380     2.865770
 H     2.921920     4.769328     3.225258
 C     4.644048     1.889870     2.678894
 H     5.606222     1.417138     2.892337
 C     4.374646     3.171016     3.156501
 H     5.120407     3.708743     3.746880
