  80
scf done:    -2921.557389
 C    -1.510300    -1.144660    -3.247884
 H    -2.127905    -2.047338    -3.281001
 H    -2.033719    -0.227688    -3.531218
 C    -0.115094    -1.250158    -3.449890
 H     0.323758    -2.236143    -3.632230
 H     0.437131    -0.420701    -3.899063
 H    -0.449173     0.651765    -1.813889
Rh    -0.500554    -0.863748    -1.349471
 O    -3.100407     1.196131    -0.589604
 C    -3.611263    -1.225227     0.306795
 C    -1.823984     0.484546     1.654605
 O     1.572758    -0.925028     1.215477
 C     3.039354    -0.663246    -1.068054
 C     1.617468     1.536985     0.034084
 P     1.425507    -0.243538    -0.323594
 P    -2.204712    -0.109176    -0.032547
 C    -0.426249    -2.702546    -0.799550
 O    -0.310900    -3.787074    -0.447026
 C    -2.684159     2.110871    -1.511903
 C    -1.577369     2.931307    -1.284243
 H    -0.989637     2.815437    -0.371852
 C    -3.432126     2.243238    -2.682776
 H    -4.290265     1.585224    -2.831650
 C    -1.230075     3.890432    -2.234005
 H    -0.365567     4.531322    -2.049133
 C    -3.074829     3.204046    -3.624958
 H    -3.662673     3.305841    -4.540382
 C    -1.972965     4.031147    -3.404675
 H    -1.695037     4.784829    -4.144606
 C    -3.814608    -2.344794    -0.505872
 H    -3.109941    -2.549220    -1.314390
 C    -4.520543    -0.957842     1.339234
 H    -4.372085    -0.089755     1.985433
 C    -4.899244    -3.191470    -0.296475
 H    -5.069440    -4.072178    -0.918026
 C    -5.610148    -1.792595     1.558446
 H    -6.327169    -1.603399     2.359284
 C    -5.782946    -2.901358     0.735568
 F    -6.820100    -3.705661     0.946282
 C    -2.183080     1.760166     2.099892
 H    -2.744822     2.423116     1.438916
 C    -1.116268    -0.368494     2.511334
 H    -0.807802    -1.357155     2.164658
 C    -1.825835     2.190736     3.376936
 H    -2.090772     3.185145     3.741115
 C    -0.762293     0.045495     3.790421
 H    -0.201203    -0.601937     4.466489
 C    -1.117743     1.327006     4.203283
 F    -0.767287     1.735139     5.420734
 C     2.759015    -1.194135     1.841649
 C     3.324610    -0.272872     2.724416
 H     2.822756     0.678116     2.904675
 C     3.384040    -2.420889     1.607743
 H     2.916682    -3.126800     0.918595
 C     4.527854    -0.579470     3.358994
 H     4.969399     0.142961     4.049743
 C     4.586789    -2.715344     2.242462
 H     5.076354    -3.673115     2.051113
 C     5.165820    -1.794721     3.116661
 H     6.110494    -2.027532     3.612815
 C     4.235399    -0.048890    -0.666794
 H     4.215461     0.769421     0.055758
 C     3.090142    -1.714213    -1.989573
 H     2.154347    -2.180889    -2.305266
 C     5.456546    -0.480235    -1.169707
 H     6.397579    -0.019955    -0.864060
 C     4.306178    -2.157775    -2.500748
 H     4.364029    -2.974908    -3.221803
 C     5.473905    -1.533609    -2.078922
 F     6.640489    -1.950024    -2.559995
 C     1.184100     2.074193     1.250209
 H     0.812320     1.411880     2.033198
 C     2.061747     2.403149    -0.973488
 H     2.384709     2.000921    -1.937087
 C     1.202297     3.450193     1.468012
 H     0.860222     3.880981     2.410514
 C     2.091825     3.777780    -0.766026
 H     2.442235     4.465526    -1.537810
 C     1.657437     4.284310     0.454853
 F     1.672531     5.600216     0.650575
