 118
scf done:    -2846.663160
 C    -0.692893    -0.814018    -3.473284
 H    -1.170631    -1.786185    -3.637696
 H    -1.300817     0.038099    -3.785130
 C     0.726612    -0.710871    -3.509488
 H     1.329378    -1.606174    -3.697715
 H     1.190367     0.212332    -3.868282
 H    -0.060237     1.005112    -1.829625
Rh     0.046380    -0.545580    -1.480913
 C    -2.330349     1.636616     0.022174
 C    -3.382429    -0.864225    -1.031942
 C    -1.851473    -0.867881     1.550393
 C     2.389567    -1.138360     1.044715
 C     3.408701     0.309040    -1.295282
 C     1.732080     1.743366     0.728408
 P     1.882471     0.138453    -0.215638
 P    -1.864035    -0.157140    -0.180206
 C     0.216722    -2.421820    -1.241050
 O     0.326222    -3.568234    -1.210933
 C    -2.228932     2.410052     1.199088
 O    -1.715367     1.819055     2.302512
 C    -1.744724     2.482231     3.532564
 H    -1.376329     1.765558     4.277963
 H    -1.089897     3.371247     3.539307
 H    -2.768080     2.787569     3.810442
 C    -2.742985     2.331341    -1.142610
 O    -2.784694     1.613971    -2.279260
 C    -3.140276     2.225317    -3.485690
 H    -3.078485     1.446445    -4.256273
 H    -2.446092     3.041611    -3.748314
 H    -4.170795     2.620565    -3.457875
 C    -3.099200     3.683986    -1.121094
 H    -3.422105     4.186085    -2.031344
 C    -2.612026     3.758235     1.233422
 H    -2.542240     4.326958     2.158890
 C    -3.045793     4.384204     0.075810
 H    -3.333183     5.437619     0.103344
 H    -3.173059    -0.574193    -2.071725
 C    -4.757144    -0.295991    -0.676913
 H    -4.740132     0.803456    -0.682616
 H    -5.044109    -0.594411     0.343771
 C    -5.807654    -0.809146    -1.658800
 H    -6.801467    -0.410363    -1.395772
 H    -5.573203    -0.422294    -2.667514
 C    -5.839658    -2.333083    -1.699618
 H    -6.573576    -2.684958    -2.443276
 H    -6.185907    -2.710611    -0.719891
 C    -4.460508    -2.911901    -1.995509
 H    -4.158843    -2.633924    -3.021494
 H    -4.491237    -4.013536    -1.968124
 C    -3.410164    -2.392617    -1.016918
 H    -3.651051    -2.762673    -0.005808
 H    -2.419586    -2.793883    -1.278495
 H    -1.151787    -0.196628     2.067409
 C    -1.219359    -2.260256     1.628992
 H    -0.223378    -2.235645     1.167672
 H    -1.810690    -3.001020     1.068336
 C    -1.089709    -2.713896     3.080219
 H    -0.656518    -3.726408     3.116198
 H    -0.364786    -2.055835     3.588767
 C    -2.414843    -2.661661     3.828762
 H    -2.277770    -2.964524     4.880202
 H    -3.116021    -3.391491     3.384413
 C    -3.028491    -1.269749     3.745058
 H    -2.374917    -0.551262     4.273393
 H    -4.003250    -1.241618     4.259810
 C    -3.186602    -0.828979     2.293382
 H    -3.897276    -1.513580     1.801575
 H    -3.631045     0.175928     2.240884
 C     2.137285    -1.088514     2.433407
 O     1.511945     0.008510     2.920350
 C     1.430470     0.213410     4.300605
 H     1.005268     1.215853     4.439042
 H     0.770423    -0.522940     4.791655
 H     2.424407     0.179723     4.778786
 C     2.928327    -2.354109     0.554969
 O     3.100803    -2.426995    -0.777887
 C     3.540612    -3.615540    -1.372252
 H     3.559409    -3.427563    -2.453363
 H     2.846452    -4.447010    -1.167601
 H     4.556564    -3.887813    -1.037493
 C     3.260332    -3.420253     1.396662
 H     3.678283    -4.338365     0.987401
 C     2.487854    -2.143923     3.285839
 H     2.297688    -2.073901     4.355474
 C     3.048373    -3.299597     2.762791
 H     3.310423    -4.124680     3.428774
 H     3.265831    -0.549332    -1.967169
 C     4.790698     0.159103    -0.658677
 H     4.829172    -0.720022     0.000032
 H     5.016161     1.031540    -0.024626
 C     5.854147     0.045962    -1.748772
 H     6.855515    -0.048709    -1.296841
 H     5.680351    -0.884752    -2.319309
 C     5.813203     1.236243    -2.701910
 H     6.553425     1.109746    -3.509161
 H     6.110356     2.146727    -2.149681
 C     4.418513     1.444364    -3.283382
 H     4.161575     0.593653    -3.940007
 H     4.398882     2.345184    -3.918797
 C     3.366648     1.552918    -2.182811
 H     3.575349     2.454461    -1.582557
 H     2.361605     1.677804    -2.614122
 H     0.981040     1.491291     1.490614
 C     1.134254     2.899703    -0.080327
 H     0.200562     2.574321    -0.559959
 H     1.811557     3.204395    -0.892043
 C     0.879164     4.101291     0.825043
 H     0.453653     4.929849     0.236079
 H     0.108282     3.829246     1.564767
 C     2.135417     4.547443     1.561905
 H     1.912952     5.397613     2.228266
 H     2.879512     4.912873     0.830692
 C     2.740129     3.391604     2.349199
 H     2.040277     3.091649     3.150803
 H     3.671275     3.705540     2.849663
 C     3.006610     2.192619     1.444783
 H     3.759100     2.487296     0.694512
 H     3.445432     1.363931     2.020086
