  96
scf done:    -2982.721110
 C     0.540150    -4.439377    -0.562943
 H     1.246490    -4.772873    -1.328053
 H     0.858128    -4.635290     0.464113
 C    -0.833044    -4.325808    -0.865475
 H    -1.194260    -4.576702    -1.866726
 H    -1.581097    -4.426024    -0.075077
 H    -0.341770    -2.407241     0.740025
Rh     0.035271    -2.338577    -0.804632
 O     2.132630    -1.082701     1.532618
 O     3.295967    -1.771405    -0.546616
 O     1.853176     0.374752    -0.561406
 O    -2.072762    -0.088084    -2.089459
 O    -3.128715    -1.507248    -0.242736
 O    -1.476861     0.299156     0.384245
 P    -1.666859    -0.908000    -0.714767
 P     1.828366    -1.211370    -0.093574
 C     0.419245    -2.265276    -2.694396
 O     0.630380    -2.197339    -3.814512
 C     1.148277    -0.840765     2.459772
 C     0.566500     0.421030     2.569522
 H     0.856764     1.216227     1.881664
 C     0.765357    -1.878799     3.308384
 H     1.230917    -2.858287     3.186799
 C    -0.401601     0.643232     3.545633
 H    -0.868236     1.628081     3.619361
 C    -0.199614    -1.644329     4.285435
 H    -0.498646    -2.455756     4.953212
 C    -0.783769    -0.383128     4.407994
 H    -1.540361    -0.201259     5.174617
 C     4.538351    -1.258244    -0.232544
 C     5.081412    -1.424626     1.037480
 H     4.514817    -1.964049     1.796190
 C     5.253573    -0.593321    -1.225425
 H     4.813965    -0.490819    -2.218586
 C     6.325531    -0.865817     1.322259
 H     6.744357    -0.985874     2.325265
 C     6.491402    -0.039751    -0.923012
 H     7.036724     0.501419    -1.701019
 C     7.044376    -0.150431     0.359349
 C     8.352641     0.506612     0.690931
 H     8.811256     0.066543     1.587861
 H     8.212496     1.583242     0.887269
 H     9.071277     0.419187    -0.137658
 C     2.843317     1.325773    -0.478857
 C     3.110951     2.057201    -1.633587
 H     2.540564     1.838997    -2.538714
 C     3.543448     1.593045     0.697701
 H     3.332712     1.023831     1.601895
 C     4.110719     3.025761    -1.621743
 H     4.320136     3.587392    -2.536406
 C     4.547178     2.555429     0.686059
 H     5.108516     2.739852     1.606124
 C     4.859888     3.282258    -0.468786
 C     5.984829     4.275998    -0.472871
 H     5.882826     5.000507    -1.293453
 H     6.956418     3.769141    -0.600845
 H     6.033596     4.836162     0.472821
 C    -3.335804     0.274199    -2.493328
 C    -3.749632     1.600469    -2.380190
 H    -3.073441     2.340835    -1.952163
 C    -4.176078    -0.690127    -3.050889
 H    -3.824042    -1.719691    -3.131976
 C    -5.027545     1.953196    -2.809747
 H    -5.354288     2.991408    -2.715114
 C    -5.451486    -0.325505    -3.475065
 H    -6.112213    -1.082125    -3.904682
 C    -5.884380     0.995245    -3.350807
 H    -6.886240     1.277747    -3.681614
 C    -3.938190    -0.989490     0.740900
 C    -5.141518    -0.380493     0.395736
 H    -5.422141    -0.300148    -0.655138
 C    -3.556093    -1.090607     2.078140
 H    -2.600462    -1.551944     2.333358
 C    -5.957450     0.136419     1.399862
 H    -6.897235     0.620973     1.121143
 C    -4.380390    -0.562263     3.065994
 H    -4.065073    -0.630941     4.110795
 C    -5.594786     0.061134     2.749494
 C    -6.489382     0.602394     3.826962
 H    -7.143466     1.399733     3.445593
 H    -5.908138     1.009967     4.667299
 H    -7.140939    -0.188257     4.235570
 C    -1.677404     1.646781     0.257250
 C    -2.732484     2.252528     0.935945
 H    -3.411535     1.640151     1.530440
 C    -0.795772     2.410445    -0.507038
 H     0.031625     1.914345    -1.015380
 C    -2.911965     3.629057     0.823142
 H    -3.748641     4.098438     1.348016
 C    -0.994337     3.784061    -0.609973
 H    -0.302735     4.375187    -1.216660
 C    -2.055295     4.420010     0.047903
 C    -2.243233     5.906518    -0.047946
 H    -3.283896     6.195612     0.157832
 H    -1.974783     6.283545    -1.045838
 H    -1.605619     6.434426     0.681002
