  92
scf done:    -2681.917916
 C     1.178880    -2.167172     3.568422
 H     1.597170    -3.156602     3.358515
 H     1.874711    -1.486889     4.067782
 C    -0.218615    -2.032432     3.802406
 H    -0.857259    -2.921300     3.774766
 H    -0.578056    -1.249784     4.476379
 H     0.512145     0.107018     2.656226
Rh     0.255016    -1.248054     1.857996
 O     1.742185     1.280777     0.463455
 C     3.633220    -0.657230     1.156476
 C     1.937881    -0.814191    -1.259368
 O    -1.546733    -0.282656    -0.725621
 C    -3.175946    -0.653586     1.554855
 C    -1.472589     1.734029     1.122083
 P    -1.499104    -0.118422     0.948743
 P     1.900548    -0.389566     0.544205
 C    -0.169431    -2.932758     1.045993
 O    -0.520570    -3.953748     0.660484
 C     2.613109     2.258485     0.079266
 C     2.920917     3.241678     1.022154
 H     2.491103     3.155071     2.021995
 C     3.120375     2.350791    -1.218839
 H     2.859841     1.600516    -1.964222
 C     3.763261     4.294719     0.677632
 H     4.002386     5.058863     1.421280
 C     3.972091     3.401746    -1.549106
 H     4.381300     3.458472    -2.560356
 C     4.300880     4.374645    -0.606554
 H     4.967317     5.197063    -0.874881
 H     3.687789    -1.755208     1.241950
 H     3.603770    -0.282786     2.191260
 C     4.803116    -0.095479     0.405133
 C     5.453719     1.054972     0.868540
 H     5.112873     1.525291     1.793338
 C     5.274433    -0.692093    -0.772333
 H     4.817712    -1.615253    -1.137233
 C     6.509004     1.618375     0.158785
 H     6.989103     2.524534     0.534829
 C     6.330977    -0.129619    -1.486491
 H     6.679050    -0.610573    -2.403868
 C     6.946282     1.033604    -1.029063
 H     7.771996     1.476994    -1.590391
 H     2.910079    -0.521054    -1.685583
 H     1.164608    -0.157799    -1.685514
 C     1.605976    -2.241642    -1.574899
 C     0.456516    -2.537571    -2.316528
 H    -0.186720    -1.721216    -2.651404
 C     2.408355    -3.305762    -1.141587
 H     3.306606    -3.109741    -0.551411
 C     0.118233    -3.853631    -2.619982
 H    -0.789172    -4.056540    -3.193931
 C     2.071667    -4.623319    -1.442289
 H     2.707758    -5.438137    -1.088575
 C     0.924133    -4.902494    -2.182291
 H     0.656336    -5.936436    -2.411395
 C    -2.557312    -0.718101    -1.525379
 C    -3.150002     0.176037    -2.419627
 H    -2.819470     1.214759    -2.427664
 C    -2.951701    -2.059838    -1.503452
 H    -2.445883    -2.760217    -0.835984
 C    -4.161148    -0.270271    -3.266370
 H    -4.627715     0.435251    -3.958129
 C    -3.972828    -2.491416    -2.348983
 H    -4.284402    -3.538409    -2.322254
 C    -4.585816    -1.599281    -3.228598
 H    -5.385137    -1.941338    -3.889599
 H    -2.959089    -0.856816     2.615126
 H    -3.353129    -1.636298     1.091495
 C    -4.366660     0.245788     1.425089
 C    -5.210776     0.201919     0.308324
 H    -5.018588    -0.518276    -0.488204
 C    -4.663872     1.158035     2.447520
 H    -4.036907     1.182654     3.343623
 C    -6.293896     1.070337     0.201542
 H    -6.933346     1.023208    -0.683129
 C    -5.749303     2.025825     2.344059
 H    -5.960463     2.729801     3.152556
 C    -6.564113     1.991718     1.213069
 H    -7.414066     2.672620     1.126405
 H    -0.425332     1.951183     1.370406
 H    -2.086538     1.971485     2.004297
 C    -1.894874     2.524254    -0.079839
 C    -3.193288     3.024004    -0.225658
 H    -3.932180     2.849973     0.557717
 C    -0.964508     2.770326    -1.099679
 H     0.053037     2.391195    -0.989607
 C    -3.555968     3.740254    -1.365466
 H    -4.577149     4.117663    -1.459131
 C    -1.324507     3.488018    -2.236832
 H    -0.581963     3.671465    -3.017294
 C    -2.625843     3.972904    -2.377306
 H    -2.910742     4.535397    -3.269747
