 110
scf done:    -3290.110412
 C    -0.243394    -2.511237    -2.706848
 H    -0.705390    -3.466132    -2.439363
 H    -0.817092    -1.916416    -3.423617
 C     1.159476    -2.357447    -2.621767
 H     1.788405    -3.186906    -2.285635
 H     1.669033    -1.642620    -3.272606
 H     0.181360    -0.098538    -1.971376
Rh     0.223655    -1.316182    -0.961344
 C    -2.741715     0.170963    -1.938805
 O    -2.973316    -1.302836     0.255797
 O    -1.759201     0.914600     0.502114
 C     1.374513     0.788853     1.652660
 O     3.220999    -0.663536     0.517888
 O     2.272145     1.210172    -0.950751
 P     1.757604    -0.006822     0.045197
 P    -1.778584    -0.417272    -0.498986
 C     0.385078    -2.849706     0.196455
 O     0.547595    -3.796350     0.820146
 C    -2.356385     1.402849    -2.508900
 O    -1.330585     2.016559    -1.904445
 C    -0.834949     3.234448    -2.378394
 H     0.032391     3.465734    -1.748273
 H    -0.507957     3.158259    -3.429698
 H    -1.584445     4.039140    -2.283837
 C    -3.712121    -0.600163    -2.609606
 O    -3.953926    -1.833286    -2.135920
 C    -4.916661    -2.637991    -2.751994
 H    -4.941903    -3.577811    -2.185902
 H    -4.657884    -2.859942    -3.802242
 H    -5.919582    -2.177506    -2.720435
 C    -4.364103    -0.087334    -3.740779
 H    -5.132543    -0.668296    -4.248327
 C    -3.005503     1.917328    -3.635834
 H    -2.723859     2.885545    -4.047370
 C    -4.013933     1.166661    -4.227827
 H    -4.529922     1.560591    -5.106769
 C    -2.723458    -2.049862     1.369211
 C    -2.501548    -1.430264     2.600685
 H    -2.476196    -0.339928     2.647081
 C    -2.748003    -3.439611     1.265456
 H    -2.907313    -3.891207     0.285115
 C    -2.331785    -2.196702     3.757449
 C    -2.175991    -1.526306     5.092609
 H    -1.721698    -0.530698     4.989306
 H    -3.157374    -1.391714     5.577404
 H    -1.556788    -2.123663     5.778962
 C    -2.554842    -4.205610     2.411573
 H    -2.559028    -5.295823     2.339713
 C    -2.352613    -3.593076     3.646755
 H    -2.211646    -4.206548     4.540864
 C    -2.740091     1.854596     0.632176
 C    -4.098888     1.546585     0.575296
 H    -4.407646     0.512232     0.418382
 C    -2.322660     3.171331     0.843277
 H    -1.252454     3.370095     0.865494
 C    -5.060180     2.556200     0.713687
 C    -6.517842     2.208030     0.619794
 H    -6.789276     1.426654     1.346929
 H    -7.155992     3.083132     0.806376
 H    -6.763498     1.816293    -0.380504
 C    -3.274994     4.171109     0.994281
 H    -2.954286     5.203004     1.160128
 C    -4.636714     3.870270     0.926261
 H    -5.378560     4.665064     1.039026
 C     1.077375     2.150473     1.846932
 O     1.112621     2.963655     0.771666
 C     1.341273     4.336151     0.960698
 H     1.591366     4.747575    -0.025553
 H     0.448373     4.854493     1.352104
 H     2.191470     4.507933     1.640817
 C     1.245015    -0.083300     2.757567
 O     1.464078    -1.385212     2.513301
 C     1.362072    -2.321421     3.553309
 H     1.562151    -3.300761     3.103486
 H     0.347381    -2.337595     3.980812
 H     2.101166    -2.121495     4.347698
 C     0.906667     0.401052     4.025455
 H     0.828665    -0.274895     4.875120
 C     0.743368     2.637347     3.116999
 H     0.523873     3.694414     3.260456
 C     0.666097     1.760226     4.189974
 H     0.400064     2.142788     5.178247
 C     3.785599    -1.688318    -0.190950
 C     4.201144    -1.497105    -1.506600
 H     4.056993    -0.518653    -1.969890
 C     3.946845    -2.922234     0.436294
 H     3.604918    -3.039043     1.464904
 C     4.775422    -2.547675    -2.228813
 C     5.164456    -2.349560    -3.664830
 H     4.272713    -2.370321    -4.313460
 H     5.655041    -1.376822    -3.818619
 H     5.846421    -3.138404    -4.012397
 C     4.529857    -3.967036    -0.274173
 H     4.661707    -4.939732     0.205972
 C     4.937580    -3.784722    -1.595356
 H     5.387585    -4.615444    -2.145168
 C     3.227003     2.162040    -0.763946
 C     4.088954     2.206443     0.331480
 H     4.034931     1.429696     1.094300
 C     3.309572     3.136000    -1.764587
 H     2.630179     3.067308    -2.615957
 C     5.022576     3.243111     0.454773
 C     5.941836     3.272046     1.641977
 H     5.380366     3.170666     2.583642
 H     6.658461     2.435679     1.604434
 H     6.518420     4.206660     1.684684
 C     4.240978     4.160531    -1.645988
 H     4.305615     4.923705    -2.425756
 C     5.089597     4.222924    -0.539993
 H     5.816335     5.034415    -0.452279
