  96
scf done:    -2610.108492
 C     0.207632    -3.126356    -2.665918
 H     0.658891    -2.986862    -3.653472
 H     0.770852    -3.792494    -2.006209
 C    -1.200935    -3.028992    -2.518692
 H    -1.822419    -2.812033    -3.393302
 H    -1.701238    -3.609637    -1.738666
 H    -0.173709    -2.168630    -0.386856
Rh    -0.276501    -1.268823    -1.688167
 C     1.752696    -0.514279     1.032272
 C     3.167931    -1.301751    -1.412669
 C     2.029108     1.398734    -1.218806
 C    -1.888210     1.593015    -0.311000
 C    -3.659934    -0.367787    -1.311510
 C    -2.272762    -0.814269     1.224837
 P    -1.968228    -0.235877    -0.511312
 P     1.654799    -0.392432    -0.793326
 C    -0.303255    -0.257744    -3.307019
 O    -0.279297     0.338709    -4.290845
 C     1.143361     0.455819     1.838394
 H     0.673320     1.331609     1.391072
 C     2.296020    -1.646937     1.647978
 H     2.709067    -2.452610     1.037229
 C     1.133954     0.309665     3.223152
 H     0.664941     1.079421     3.840996
 C     2.296195    -1.807844     3.037114
 C     2.913765    -3.023678     3.665437
 H     2.914298    -3.877704     2.972605
 H     3.961416    -2.832474     3.952835
 H     2.376783    -3.322630     4.577579
 C     1.714818    -0.805678     3.822098
 H     1.700998    -0.911088     4.910280
 H     2.983170    -1.365576    -2.495449
 H     3.062015    -2.330952    -1.038912
 C     4.522451    -0.727413    -1.138233
 C     5.219234    -0.993361     0.049240
 H     4.785894    -1.664414     0.791665
 C     5.120834     0.130509    -2.072570
 H     4.613797     0.325297    -3.021919
 C     6.452544    -0.398511     0.305024
 H     6.973392    -0.618514     1.240063
 C     6.350973     0.732183    -1.816984
 H     6.790425     1.403097    -2.558835
 C     7.019981     0.475260    -0.621800
 H     7.983877     0.946726    -0.417242
 H     1.110266     1.769681    -1.691223
 H     2.792633     1.341050    -2.010744
 C     2.457085     2.359998    -0.148477
 C     3.671026     2.231363     0.536566
 H     4.351972     1.417545     0.287601
 C     1.603486     3.413091     0.202489
 H     0.650484     3.523937    -0.318617
 C     4.011554     3.122557     1.550622
 H     4.962497     2.999203     2.074670
 C     1.941081     4.303649     1.219431
 H     1.253468     5.113838     1.476402
 C     3.147517     4.159415     1.902188
 H     3.415861     4.853103     2.702736
 C    -1.696520     2.357137    -1.472646
 H    -1.547303     1.861059    -2.434431
 C    -2.056901     2.257290     0.905410
 H    -2.220535     1.688946     1.823099
 C    -1.717686     3.745968    -1.411148
 H    -1.586723     4.331900    -2.324110
 C    -2.041933     3.656796     0.990185
 C    -2.171540     4.332410     2.323521
 H    -2.434724     5.394073     2.216066
 H    -2.939775     3.849012     2.945369
 H    -1.219697     4.279630     2.878305
 C    -1.889149     4.393459    -0.186491
 H    -1.892993     5.485921    -0.143724
 H    -3.840544    -1.445194    -1.440136
 H    -3.514140     0.043977    -2.321724
 C    -4.778146     0.319090    -0.590663
 C    -5.026111     1.685525    -0.787997
 H    -4.423282     2.241343    -1.509125
 C    -5.577149    -0.366047     0.335327
 H    -5.421866    -1.435317     0.497356
 C    -6.022518     2.344843    -0.073842
 H    -6.193002     3.410385    -0.245907
 C    -6.575957     0.291185     1.051699
 H    -7.185602    -0.267807     1.765780
 C    -6.799411     1.652161     0.854027
 H    -7.581628     2.169380     1.414675
 H    -3.262656    -0.451144     1.546703
 H    -1.511834    -0.309330     1.837133
 C    -2.129740    -2.296062     1.412198
 C    -1.034094    -2.794839     2.125353
 H    -0.312180    -2.094554     2.548379
 C    -3.039181    -3.213358     0.872663
 H    -3.902757    -2.858139     0.307950
 C    -0.844224    -4.164736     2.286451
 H     0.023788    -4.526295     2.843698
 C    -2.852947    -4.585117     1.030729
 H    -3.573378    -5.281975     0.595481
 C    -1.751619    -5.067875     1.735828
 H    -1.603726    -6.143657     1.856126
