  70
scf done:    -2366.564055
 C    -3.586790    -1.950570     0.666888
 H    -4.149730    -2.068097    -0.264681
 H    -3.298244    -2.893350     1.138985
 C    -3.799601    -0.796548     1.460831
 H    -4.515034    -0.039479     1.126649
 H    -3.684676    -0.855883     2.546359
 H    -1.370857    -1.436257     1.748484
Rh    -1.874495    -0.639776     0.478773
 C     1.355941    -1.285486    -0.865931
 O    -0.006956    -3.304799     0.406657
 O    -0.575655    -2.667214    -1.951104
 C     0.592676     1.967033     0.510195
 O    -1.575297     2.488186     1.796890
 O    -0.102743     0.870114     2.904485
 P    -0.761092     1.111342     1.425885
 P    -0.310984    -1.965776    -0.478360
 C    -2.537519     0.267292    -1.072254
 O    -2.971658     0.761200    -2.014962
 C     1.416466    -0.384000    -1.949191
 O     0.239366    -0.109937    -2.542931
 C     0.190545     0.795119    -3.610173
 H    -0.870266     0.912091    -3.864712
 H     0.603855     1.776885    -3.324218
 H     0.737527     0.413764    -4.489856
 C     2.534700    -1.515730    -0.134114
 O     2.432779    -2.282625     0.970528
 C     3.586668    -2.664783     1.659665
 H     3.256291    -3.313399     2.481138
 H     4.122621    -1.799470     2.085500
 H     4.281875    -3.229642     1.013877
 C     3.754421    -0.962283    -0.549377
 H     4.675274    -1.177752    -0.009123
 C     2.624906     0.187448    -2.357066
 H     2.663758     0.878218    -3.197349
 C     3.784007    -0.125063    -1.657658
 H     4.734496     0.310638    -1.974550
 C     0.723997    -4.386600    -0.122565
 H     0.090977    -4.998900    -0.783508
 H     1.604361    -4.055042    -0.696520
 H     1.062055    -4.998469     0.725503
 C    -1.790670    -2.549446    -2.643237
 H    -2.651705    -2.499789    -1.958139
 H    -1.791409    -1.647385    -3.276251
 H    -1.895417    -3.435344    -3.287016
 C     1.960526     1.883980     0.825259
 O     2.323297     1.025896     1.797567
 C     3.601073     1.116580     2.354615
 H     3.616266     0.428783     3.210606
 H     4.386183     0.814301     1.640041
 H     3.816681     2.137148     2.714920
 C     0.214504     2.791833    -0.568654
 O    -1.093958     2.781842    -0.887075
 C    -1.595906     3.692279    -1.822472
 H    -2.675270     3.508350    -1.884380
 H    -1.159175     3.539729    -2.824639
 H    -1.416888     4.734709    -1.507959
 C     1.152169     3.566737    -1.260753
 H     0.844972     4.224348    -2.073070
 C     2.904369     2.663712     0.140746
 H     3.960799     2.603983     0.396949
 C     2.489792     3.499344    -0.885572
 H     3.228004     4.105613    -1.416053
 C    -2.976978     2.514913     1.865506
 H    -3.434242     2.225943     0.905185
 H    -3.369739     1.849350     2.651233
 H    -3.263778     3.549743     2.101938
 C     0.330786    -0.381611     3.377545
 H     0.933244    -0.184659     4.276896
 H    -0.523174    -1.021679     3.652320
 H     0.949921    -0.918766     2.643958
