 108
scf done:    -2467.460482
 C    -0.723707     0.039321    -3.676308
 H    -1.233959    -0.823160    -4.117269
 H    -1.298213     0.968828    -3.739393
 C     0.699007     0.092911    -3.700407
 H     1.259088    -0.728406    -4.159925
 H     1.201014     1.062209    -3.772437
 H    -0.022813     1.271543    -1.610785
Rh     0.031295    -0.313157    -1.700655
 C    -1.510457     1.487182     0.846386
 C    -3.284262     0.529904    -1.200838
 C    -2.240741    -1.306816     0.983146
 C     1.494802    -1.139857     1.328114
 C     3.368773    -1.042440    -0.844884
 C     2.263920     1.501183     0.413768
 P     1.828825    -0.193461    -0.214234
 P    -1.766391     0.018700    -0.239470
 C     0.158524    -2.188056    -1.976308
 O     0.306922    -3.301193    -2.230240
 C    -1.370473     1.415641     2.236300
 H    -1.452120     0.460843     2.754454
 C    -1.389943     2.743452     0.233849
 H    -1.467810     2.814347    -0.854702
 C    -1.098991     2.565604     2.978461
 H    -0.974874     2.489890     4.061875
 C    -1.149931     3.909078     0.963750
 C    -1.083892     5.241681     0.275184
 H    -0.697795     5.145668    -0.749936
 H    -2.086018     5.697202     0.207629
 H    -0.439931     5.947597     0.819495
 C    -0.990161     3.802503     2.352041
 H    -0.780350     4.698465     2.942669
 H    -2.822747     1.220403    -1.930956
 C    -4.405127     1.296065    -0.497656
 H    -3.997137     2.137591     0.082514
 H    -4.920593     0.641212     0.221602
 C    -5.418173     1.800338    -1.523760
 H    -6.234443     2.339171    -1.015249
 H    -4.925239     2.536009    -2.185250
 C    -5.978789     0.660875    -2.368883
 H    -6.677899     1.051354    -3.126331
 H    -6.569639    -0.010691    -1.719255
 C    -4.866493    -0.143258    -3.033744
 H    -4.348186     0.489322    -3.776713
 H    -5.287845    -0.995112    -3.592042
 C    -3.847431    -0.637543    -2.012345
 H    -4.339901    -1.352898    -1.330266
 H    -3.025802    -1.178167    -2.507240
 H    -1.397222    -1.266573     1.698541
 C    -2.215023    -2.715968     0.387549
 H    -1.254724    -2.888356    -0.114616
 H    -2.995148    -2.812857    -0.386178
 C    -2.429118    -3.774663     1.465589
 H    -2.447348    -4.775843     1.004964
 H    -1.561958    -3.759193     2.147490
 C    -3.698770    -3.533972     2.272749
 H    -3.792624    -4.284447     3.074634
 H    -4.580745    -3.665539     1.619540
 C    -3.719062    -2.124670     2.851687
 H    -2.900275    -2.017912     3.587365
 H    -4.658130    -1.942900     3.399665
 C    -3.544587    -1.081863     1.751905
 H    -4.390294    -1.170211     1.049597
 H    -3.592770    -0.064915     2.169055
 C     1.422044    -2.539501     1.249974
 H     1.619150    -3.050133     0.304680
 C     1.210819    -0.530967     2.555074
 H     1.251958     0.554703     2.647799
 C     1.093075    -3.292048     2.371799
 H     1.054631    -4.381596     2.298312
 C     0.846700    -1.273175     3.685889
 C     0.483782    -0.578218     4.966507
 H     0.931884     0.424202     5.022112
 H    -0.609840    -0.454565     5.050512
 H     0.811389    -1.151307     5.846219
 C     0.800221    -2.665921     3.583097
 H     0.531495    -3.265852     4.456895
 H     2.937621    -1.977784    -1.249678
 C     4.456016    -1.440320     0.154191
 H     4.022082    -1.976546     1.011448
 H     4.939280    -0.538534     0.561117
 C     5.512650    -2.303510    -0.532183
 H     6.302994    -2.574953     0.186654
 H     5.047949    -3.252846    -0.855339
 C     6.114278    -1.599336    -1.744002
 H     6.844447    -2.254281    -2.246763
 H     6.678253    -0.712655    -1.400777
 C     5.034840    -1.152343    -2.724082
 H     4.548570    -2.041022    -3.165493
 H     5.482682    -0.595311    -3.563124
 C     3.973354    -0.299369    -2.036915
 H     4.439363     0.636925    -1.683088
 H     3.178338    -0.015619    -2.742325
 H     1.354761     1.751617     0.994598
 C     2.357540     2.561059    -0.687177
 H     1.481807     2.481849    -1.348250
 H     3.244541     2.371445    -1.314950
 C     2.454313     3.956251    -0.078455
 H     2.539562     4.710835    -0.877557
 H     1.514071     4.170057     0.457575
 C     3.619948     4.077729     0.896213
 H     3.632971     5.078067     1.359261
 H     4.571161     3.980117     0.341689
 C     3.558151     2.994227     1.966836
 H     2.667007     3.155757     2.601003
 H     4.433490     3.058594     2.633782
 C     3.477619     1.605065     1.339793
 H     4.392152     1.431765     0.747993
 H     3.459083     0.828091     2.118692
