  84
scf done:    -2849.745615
 C    -0.731937    -0.014655    -3.624234
 H    -1.271283    -0.888765    -4.001675
 H    -1.290813     0.921992    -3.700413
 C     0.683017    -0.008933    -3.655479
 H     1.214290    -0.872815    -4.066619
 H     1.223435     0.934696    -3.770430
 H    -0.006784     1.300819    -1.608764
Rh    -0.002914    -0.291527    -1.618292
 C    -1.715187     1.296856     1.075150
 C    -3.309473     0.679711    -1.206155
 C    -2.563870    -1.383202     0.610197
 C     1.670568    -0.968674     1.392098
 C     3.406446    -0.944997    -0.852698
 C     2.509586     1.525392     0.174951
 P     1.864305    -0.145059    -0.237009
 P    -1.853179     0.058179    -0.278814
 C    -0.089447    -2.198073    -1.678855
 O    -0.167802    -3.341547    -1.719321
 C    -2.429231     1.167233     2.270438
 H    -3.081997     0.307173     2.430879
 C    -0.877585     2.404517     0.896835
 H    -0.308945     2.489529    -0.032514
 C    -2.296460     2.135146     3.265073
 H    -2.850742     2.028201     4.200874
 C    -0.736192     3.382890     1.884829
 C     0.166672     4.563322     1.680150
 H     0.672350     4.514742     0.706964
 H    -0.397438     5.508254     1.728219
 H     0.944864     4.608465     2.457811
 C    -1.456999     3.229001     3.077074
 H    -1.356395     3.978834     3.867078
 C    -3.771147    -0.082902    -2.288819
 H    -3.262072    -1.015285    -2.544555
 C    -3.958189     1.879840    -0.900523
 H    -3.614658     2.487676    -0.061083
 C    -4.864276     0.330296    -3.040269
 H    -5.236901    -0.256421    -3.881797
 C    -5.045834     2.314995    -1.657274
 H    -5.558409     3.252440    -1.434024
 C    -5.486300     1.532324    -2.715278
 F    -6.526777     1.939600    -3.438763
 C    -3.942336    -1.592137     0.746368
 H    -4.647813    -0.901266     0.279690
 C    -1.680647    -2.286025     1.216163
 H    -0.603557    -2.143715     1.113387
 C    -4.430617    -2.675048     1.473848
 H    -5.501722    -2.854443     1.583442
 C    -2.154630    -3.363560     1.956454
 H    -1.470604    -4.066459     2.434614
 C    -3.527705    -3.544820     2.073632
 F    -3.989820    -4.578153     2.773728
 C     2.068268    -2.302399     1.545213
 H     2.614139    -2.807902     0.745788
 C     0.962942    -0.345178     2.429867
 H     0.625635     0.687369     2.313503
 C     1.763043    -2.988601     2.719396
 H     2.078102    -4.028684     2.834265
 C     0.656580    -1.022606     3.613923
 C    -0.135141    -0.354899     4.698403
 H    -0.050720     0.739068     4.645430
 H    -1.205175    -0.600977     4.596939
 H     0.187215    -0.687323     5.696102
 C     1.067421    -2.355394     3.745191
 H     0.835653    -2.901444     4.663806
 C     3.370063    -1.729486    -2.007777
 H     2.426516    -1.829859    -2.546181
 C     4.624042    -0.800706    -0.172247
 H     4.678023    -0.187190     0.729780
 C     4.515567    -2.369295    -2.478174
 H     4.498991    -2.985273    -3.378938
 C     5.775987    -1.428700    -0.629739
 H     6.731187    -1.324181    -0.112045
 C     5.704636    -2.208470    -1.780874
 F     6.805644    -2.810492    -2.221823
 C     3.075292     1.861484     1.410726
 H     3.083675     1.134823     2.225788
 C     2.515111     2.480512    -0.850088
 H     2.060096     2.228244    -1.811133
 C     3.630571     3.121638     1.623295
 H     4.068010     3.398779     2.584203
 C     3.078374     3.737502    -0.656547
 H     3.091239     4.488007    -1.448965
 C     3.628324     4.042411     0.583627
 F     4.152444     5.248969     0.783346
