 100
scf done:    -2910.770170
 C    -0.535220    -0.526747    -3.615641
 H    -1.094907    -1.419649    -3.911647
 H    -1.050631     0.413043    -3.832203
 C     0.880661    -0.578176    -3.583178
 H     1.389551    -1.506331    -3.861571
 H     1.468396     0.322088    -3.782332
 H     0.174002     1.001405    -1.759329
Rh     0.111433    -0.574684    -1.564620
 C    -1.511871     1.561535     0.736814
 C    -3.196207     0.537616    -1.320263
 C    -2.483136    -1.136173     0.845842
 C     1.775664    -1.104585     1.483596
 C     3.550504    -0.887274    -0.724366
 C     2.343104     1.470044     0.303574
 P     1.928521    -0.259152    -0.140207
 P    -1.731740     0.067451    -0.318687
 C    -0.002528    -2.473461    -1.429546
 O    -0.069674    -3.619292    -1.394055
 C    -1.839481     1.577665     2.095075
 H    -2.252530     0.685683     2.569108
 C    -0.994308     2.724994     0.150361
 H    -0.726738     2.709473    -0.909684
 C    -1.628004     2.733498     2.848381
 H    -1.871227     2.735203     3.914191
 C    -0.819518     3.901922     0.880794
 C    -0.338393     5.161655     0.221690
 H    -0.126300     4.997674    -0.843252
 H    -1.097856     5.956606     0.297757
 H     0.583240     5.541116     0.687942
 C    -1.126529     3.883359     2.248962
 H    -0.978438     4.788263     2.845504
 C    -3.937399     1.711823    -1.128657
 H    -3.637337     2.426744    -0.359557
 C    -3.615387    -0.354090    -2.311258
 H    -3.042272    -1.269117    -2.479342
 C    -5.055548     1.983121    -1.906081
 H    -5.634383     2.898259    -1.766938
 C    -4.741710    -0.101331    -3.089521
 H    -5.035790    -0.823858    -3.851146
 C    -5.469518     1.079301    -2.892529
 O    -6.565103     1.423880    -3.598379
 C    -7.020811     0.560267    -4.600903
 H    -7.304250    -0.427600    -4.196186
 H    -7.909242     1.030106    -5.041810
 H    -6.265204     0.413850    -5.392981
 C    -1.702596    -2.165085     1.391082
 H    -0.657634    -2.264694     1.095584
 C    -3.822622    -1.045404     1.238461
 H    -4.458657    -0.263014     0.817037
 C    -2.233095    -3.055873     2.311818
 H    -1.622285    -3.852249     2.740491
 C    -4.372102    -1.936489     2.158123
 H    -5.421595    -1.835025     2.435545
 C    -3.573124    -2.948583     2.706504
 O    -4.006379    -3.854524     3.604430
 C    -5.339771    -3.803914     4.026900
 H    -6.042989    -3.947366     3.187596
 H    -5.473977    -4.622744     4.745119
 H    -5.577090    -2.848387     4.527564
 C     2.381544    -2.345906     1.705840
 H     3.057075    -2.767549     0.958590
 C     0.912866    -0.585739     2.457830
 H     0.413660     0.369446     2.280260
 C     2.120295    -3.044085     2.883909
 H     2.595595    -4.013546     3.053130
 C     0.649328    -1.272214     3.645796
 C    -0.326955    -0.722460     4.643290
 H    -0.346221     0.376433     4.625388
 H    -1.346100    -1.075223     4.408175
 H    -0.091866    -1.051749     5.665845
 C     1.266262    -2.513001     3.846874
 H     1.069787    -3.069360     4.767663
 C     4.761150    -0.449107    -0.162829
 H     4.753007     0.319696     0.613626
 C     3.598032    -1.860147    -1.721703
 H     2.663124    -2.194791    -2.175191
 C     5.971268    -0.972867    -0.585017
 H     6.917950    -0.635075    -0.159006
 C     4.808962    -2.403681    -2.152530
 H     4.803523    -3.162948    -2.934783
 C     6.006662    -1.958497    -1.584199
 O     7.227579    -2.408267    -1.931293
 C     7.328115    -3.387612    -2.926690
 H     6.922678    -3.035592    -3.891679
 H     8.396992    -3.604005    -3.048867
 H     6.805987    -4.318173    -2.641941
 C     2.355221     2.420755    -0.730165
 H     2.087605     2.107957    -1.742520
 C     2.684995     1.891539     1.588312
 H     2.709356     1.175156     2.411364
 C     2.680139     3.742415    -0.482641
 H     2.687924     4.485846    -1.281823
 C     2.987294     3.227753     1.858553
 H     3.223559     3.521368     2.881415
 C     2.976119     4.163056     0.822108
 O     3.212832     5.482295     0.983040
 C     3.513330     5.959559     2.264672
 H     4.433609     5.501334     2.667470
 H     3.667845     7.041845     2.169958
 H     2.686735     5.776731     2.974152
