 100
scf done:    -2910.904505
 C     0.711332    -3.515385     0.671022
 H     1.466425    -3.912397    -0.013214
 H     1.030222    -3.457479     1.714701
 C    -0.656790    -3.605005     0.358596
 H    -0.978125    -4.076450    -0.574345
 H    -1.406852    -3.615493     1.151865
 H    -0.356149    -1.325222     1.532636
Rh     0.020065    -1.551369     0.004184
 C     1.799012     0.955369     1.897160
 O     3.250265    -0.904666     0.819843
 O     2.153640     0.804278    -0.777119
 C    -1.932466     0.755748    -1.866470
 O    -3.295886    -1.051189    -0.580176
 O    -2.157404     0.788556     0.816570
 P    -1.810034    -0.313089    -0.404655
 P     1.761946    -0.213913     0.510442
 C     0.439611    -1.887739    -1.843128
 O     0.670005    -2.099425    -2.943701
 C     0.587251     1.500981     2.333199
 H    -0.358499     1.137550     1.926232
 C     3.006789     1.411244     2.434921
 H     3.944982     0.970122     2.093473
 C     0.600980     2.514203     3.288189
 H    -0.342677     2.944347     3.632415
 C     3.029491     2.435087     3.386041
 C     4.339893     2.950366     3.906334
 H     4.990760     2.127465     4.239127
 H     4.882112     3.493361     3.114961
 H     4.198844     3.638133     4.751914
 C     1.809704     2.979774     3.802876
 H     1.809038     3.781396     4.547057
 C     3.725989    -1.984467     0.130823
 C     3.662295    -2.052856    -1.259764
 H     3.226793    -1.221831    -1.817800
 C     4.296773    -3.022294     0.869012
 H     4.329668    -2.941418     1.956641
 C     4.142578    -3.180374    -1.938543
 C     4.048957    -3.244938    -3.435075
 H     3.015604    -3.071046    -3.772142
 H     4.676015    -2.469682    -3.904152
 H     4.377604    -4.221056    -3.817719
 C     4.786269    -4.136234     0.197407
 H     5.228505    -4.957684     0.766278
 C     4.702832    -4.221804    -1.193415
 H     5.080171    -5.109007    -1.708000
 C     3.036097     1.849016    -0.664266
 C     4.406861     1.622679    -0.760860
 H     4.766593     0.604772    -0.925052
 C     2.536351     3.133751    -0.450979
 H     1.458059     3.279314    -0.367228
 C     5.310847     2.683054    -0.627192
 C     6.786853     2.435495    -0.746872
 H     7.083805     1.516877    -0.219088
 H     7.080576     2.311199    -1.802307
 H     7.370725     3.271740    -0.337200
 C     3.430908     4.190081    -0.318188
 H     3.052353     5.199140    -0.138742
 C     4.805621     3.967863    -0.399288
 H     5.498963     4.805426    -0.286129
 C    -0.750281     1.341145    -2.334891
 H     0.212852     1.069574    -1.894350
 C    -3.160546     1.102064    -2.436510
 H    -4.072933     0.633197    -2.062852
 C    -0.815299     2.280320    -3.360484
 H     0.103720     2.740238    -3.731602
 C    -3.235249     2.052047    -3.459258
 C    -4.568612     2.452559    -4.020268
 H    -5.172622     1.571716    -4.286088
 H    -5.143199     3.027707    -3.275869
 H    -4.460462     3.076903    -4.918235
 C    -2.045691     2.634550    -3.911373
 H    -2.086147     3.378332    -4.712270
 C    -3.730825    -2.051040     0.244586
 C    -3.548470    -1.998660     1.625860
 H    -3.030340    -1.145366     2.067366
 C    -4.385711    -3.132158    -0.346760
 H    -4.510010    -3.146327    -1.430746
 C    -4.000896    -3.044633     2.439503
 C    -3.763684    -2.990388     3.920802
 H    -2.685000    -2.992983     4.145632
 H    -4.180550    -2.069877     4.358417
 H    -4.218508    -3.848495     4.434650
 C    -4.847341    -4.164777     0.461192
 H    -5.357887    -5.017626     0.007364
 C    -4.652867    -4.127396     1.842597
 H    -5.011408    -4.950498     2.465694
 C    -3.058780     1.811483     0.654605
 C    -4.422027     1.574838     0.810740
 H    -4.760533     0.567616     1.062532
 C    -2.583873     3.083035     0.333720
 H    -1.510745     3.235833     0.208584
 C    -5.345131     2.611294     0.628532
 C    -6.812971     2.354599     0.812264
 H    -7.112867     1.398009     0.358819
 H    -7.071854     2.299920     1.882606
 H    -7.421334     3.153238     0.364929
 C    -3.497785     4.115369     0.152509
 H    -3.139879     5.113457    -0.110906
 C    -4.865943     3.882028     0.291826
 H    -5.574713     4.700219     0.139341
