  58
scf done:    -1836.999315
 C    -3.960543    -0.956178    -1.389310
 H    -4.596680    -1.715535    -0.924380
 H    -4.424940     0.031487    -1.461441
 C    -2.995660    -1.348082    -2.354574
 H    -2.898009    -2.404983    -2.621434
 H    -2.727811    -0.657748    -3.159430
 H    -1.978905     0.626463    -1.099749
Rh    -1.995723    -0.851518    -0.507207
 O    -1.171739     1.458545     1.887662
 C    -3.844777     1.100192     1.745866
 C    -2.065648    -0.702242     3.009099
 O     1.197961    -0.743308     0.369639
 C     0.888137    -2.298129    -1.856654
 C     0.851284     0.521004    -2.058317
 P     0.221460    -0.824183    -1.003754
 P    -2.255675     0.242861     1.465077
 C    -1.988801    -2.628199     0.198779
 O    -1.946494    -3.691331     0.629066
 C    -0.525804     2.298890     1.042266
 C    -1.173625     2.995614     0.020144
 H    -2.240329     2.848188    -0.149850
 C     0.841111     2.502223     1.248550
 H     1.336551     1.937638     2.039885
 C    -0.453834     3.877158    -0.784668
 H    -0.975142     4.406824    -1.586766
 C     1.541838     3.396859     0.447716
 H     2.610314     3.548557     0.628103
 C     0.913008     4.099049    -0.589819
 C     1.676796     5.073276    -1.439250
 H     1.160767     5.269447    -2.389950
 H     2.686285     4.701617    -1.671216
 H     1.798225     6.041312    -0.924814
 H    -4.641798     0.342328     1.778038
 H    -3.829692     1.672746     2.685362
 H    -4.056000     1.772485     0.903041
 H    -2.155886    -0.047597     3.888212
 H    -2.833093    -1.489274     3.043558
 H    -1.073940    -1.175574     3.001708
 C     2.553587    -0.910084     0.358774
 C     3.408537     0.153594     0.066097
 H     2.981498     1.128021    -0.173331
 C     3.093813    -2.153822     0.694432
 H     2.415618    -2.975637     0.933312
 C     4.788542    -0.036872     0.100403
 H     5.447417     0.804755    -0.131658
 C     4.473405    -2.328314     0.725334
 H     4.881319    -3.308509     0.988389
 C     5.348980    -1.275810     0.428015
 C     6.836715    -1.467860     0.492221
 H     7.368727    -0.685644    -0.067807
 H     7.135579    -2.443798     0.081105
 H     7.197730    -1.430644     1.533688
 H     1.972734    -2.234213    -2.031451
 H     0.662724    -3.196908    -1.265152
 H     0.362434    -2.382777    -2.819202
 H     0.662900     1.484758    -1.565677
 H     1.921406     0.411036    -2.285966
 H     0.270564     0.494479    -2.992235
