 102
scf done:    -2985.332642
 C     0.108399    -2.808821    -2.342247
 H    -0.569498    -3.643124    -2.142320
 H    -0.032988    -2.348056    -3.323674
 C     1.381580    -2.758969    -1.726941
 H     1.688270    -3.560608    -1.049404
 H     2.216901    -2.249505    -2.214210
 H     0.475853    -0.356474    -1.928666
Rh     0.098232    -1.348294    -0.744010
 C    -2.216010     0.590371    -2.536699
 C    -3.544442    -0.737115    -0.433492
 C    -1.809619     1.337442     0.322267
 C     1.362837    -0.048851     2.326092
 C     3.388779    -0.926964     0.542701
 C     1.945696     1.555192    -0.142195
 P     1.698176    -0.158068     0.509356
 P    -1.847331    -0.087588    -0.854622
 C    -0.447825    -2.465743     0.687590
 O    -0.798712    -3.099261     1.586556
 H    -1.288996     1.066826    -2.880302
 C    -2.640925    -0.527404    -3.475483
 H    -3.593635    -0.979182    -3.159216
 H    -1.886903    -1.326308    -3.505141
 H    -2.991458     1.362917    -2.452896
 H    -2.776860    -0.140188    -4.497465
 C    -4.608073     0.152664    -0.173947
 O    -4.394007     1.454261    -0.455203
 C    -5.210650     2.436433     0.113792
 H    -4.727396     3.399950    -0.094940
 H    -6.224132     2.440373    -0.324912
 H    -5.288788     2.312251     1.207331
 C    -3.810884    -2.114920    -0.296118
 O    -2.849096    -2.962407    -0.692461
 C    -2.987892    -4.333807    -0.463418
 H    -2.059411    -4.800236    -0.816595
 H    -3.838098    -4.760377    -1.024273
 H    -3.109278    -4.558017     0.610113
 C    -5.035327    -2.570929     0.215255
 H    -5.218933    -3.636333     0.345228
 C    -5.832855    -0.293791     0.338423
 H    -6.635405     0.411021     0.553165
 C    -6.025391    -1.654049     0.542718
 H    -6.978385    -2.010341     0.941570
 C    -1.629322     2.684082    -0.031618
 O    -1.353906     2.938760    -1.325032
 C    -1.378459     4.253925    -1.794841
 H    -1.180357     4.201826    -2.873171
 H    -2.363772     4.726616    -1.631115
 H    -0.595561     4.871846    -1.326027
 C    -2.005850     1.038204     1.683922
 O    -2.098014    -0.271018     1.981975
 C    -2.346968    -0.682161     3.294132
 H    -2.348514    -1.778589     3.273649
 H    -3.325739    -0.319844     3.654222
 H    -1.556380    -0.340337     3.984972
 C    -2.119641     2.047877     2.647971
 H    -2.298187     1.802417     3.694088
 C    -1.755889     3.703965     0.921942
 H    -1.647629     4.748380     0.631468
 C    -2.014879     3.374981     2.247787
 H    -2.120034     4.170566     2.989724
 H     1.010211    -1.061885     2.570370
 C     2.526289     0.339379     3.220950
 H     2.982183     1.286812     2.902471
 H     3.311425    -0.430970     3.206126
 H     0.510127     0.631995     2.436465
 H     2.192215     0.456393     4.265267
 C     4.598137    -0.282499     0.213861
 O     4.570589     1.058070     0.106111
 C     5.616936     1.736085    -0.521236
 H     5.282851     2.775511    -0.639667
 H     6.542619     1.723232     0.081751
 H     5.834968     1.314588    -1.518208
 C     3.468166    -2.293953     0.885124
 O     2.345770    -2.844194     1.388694
 C     2.314851    -4.208876     1.695404
 H     1.300846    -4.419695     2.055438
 H     3.042898    -4.465276     2.484797
 H     2.516897    -4.831259     0.806015
 C     4.654397    -3.022827     0.739022
 H     4.688845    -4.084823     0.976959
 C     5.788464    -1.005457     0.051646
 H     6.707986    -0.496479    -0.235331
 C     5.799894    -2.371549     0.298092
 H     6.727567    -2.935469     0.174574
 C     2.368061     1.653202    -1.485312
 O     2.765482     0.502191    -2.054681
 C     2.833713     0.401240    -3.447763
 H     3.002842    -0.658629    -3.675668
 H     1.889613     0.721213    -3.919703
 H     3.668854     0.992208    -3.864282
 C     1.667415     2.757952     0.530513
 O     1.291189     2.683826     1.824098
 C     1.317489     3.830469     2.621173
 H     1.079937     3.502696     3.641596
 H     0.561451     4.569821     2.310652
 H     2.314939     4.304859     2.614034
 C     1.781047     3.996111    -0.120974
 H     1.567427     4.918492     0.417435
 C     2.438526     2.877645    -2.155360
 H     2.755070     2.922066    -3.196947
 C     2.150518     4.045163    -1.458116
 H     2.224298     5.011153    -1.964069
