  84
scf done:    -2301.658862
 C     1.294586    -2.829215    -1.394206
 H     1.634140    -2.632828    -2.415785
 H     2.102576    -2.997831    -0.676673
 C     0.023209    -3.409085    -1.176435
 H    -0.615149    -3.659255    -2.029358
 H    -0.136973    -4.034543    -0.294258
 H     0.320497    -1.815968     0.791525
Rh    -0.042885    -1.292081    -0.666244
 C     3.138858    -0.499920     0.467452
 O     2.113828     1.384313    -1.036634
 O     1.125881     1.085688     1.307436
 C    -2.626965     0.995044    -0.247324
 O    -3.322348    -1.472111     0.291748
 O    -1.739681    -0.307481     1.954971
 P    -1.934616    -0.584539     0.358755
 P     1.530421     0.215201    -0.027158
 C    -0.668051    -0.788711    -2.404898
 O    -1.114246    -0.541546    -3.432501
 C     3.158237    -1.435134     1.511058
 H     2.226783    -1.702920     2.017036
 C     4.325375    -0.185275    -0.196429
 H     4.295414     0.547655    -1.005560
 C     4.359572    -2.026513     1.884396
 H     4.378557    -2.751827     2.701515
 C     5.540476    -0.783566     0.163109
 C     6.799716    -0.451308    -0.584103
 H     6.815273    -0.947260    -1.568726
 H     6.884537     0.630583    -0.766414
 H     7.694334    -0.777280    -0.034948
 C     5.540837    -1.703373     1.215098
 H     6.479820    -2.178091     1.513304
 C     1.424859     1.787811    -2.221233
 H     0.353112     1.549564    -2.102078
 C     1.984132     1.024540    -3.405245
 H     1.905773    -0.058660    -3.233217
 H     3.046151     1.274964    -3.554778
 H     1.433001     1.268696    -4.325443
 C     1.580721     3.287739    -2.356388
 H     1.145127     3.804700    -1.490602
 H     2.645211     3.559917    -2.424509
 H     1.070776     3.645571    -3.263142
 C     2.058270     1.928124     1.996045
 H     3.061123     1.786074     1.556342
 C     2.089924     1.501409     3.448659
 H     2.426356     0.459088     3.536315
 H     1.084500     1.578895     3.888194
 H     2.777155     2.138668     4.025400
 C     1.642181     3.372589     1.806768
 H     1.635560     3.627356     0.738333
 H     0.634976     3.540663     2.219067
 H     2.341544     4.049163     2.320576
 C    -3.844041     1.055203    -0.927463
 H    -4.439877     0.148475    -1.040284
 C    -1.858191     2.157870    -0.090390
 H    -0.899486     2.094615     0.434706
 C    -4.285375     2.274340    -1.442542
 H    -5.236913     2.325439    -1.977716
 C    -2.300129     3.385849    -0.587500
 C    -1.493963     4.639394    -0.404050
 H    -0.615743     4.462226     0.230321
 H    -1.139193     5.030354    -1.371183
 H    -2.095434     5.434534     0.063645
 C    -3.524274     3.425166    -1.271399
 H    -3.882902     4.377251    -1.673430
 C    -3.312479    -2.854092    -0.080835
 H    -2.265622    -3.200345    -0.067724
 C    -3.847027    -2.979691    -1.492860
 H    -3.225799    -2.398786    -2.190237
 H    -4.881095    -2.604687    -1.552340
 H    -3.840671    -4.030330    -1.820389
 C    -4.121226    -3.626842     0.939568
 H    -3.675367    -3.534976     1.940237
 H    -5.154369    -3.248068     0.982989
 H    -4.155178    -4.694288     0.674669
 C    -2.731685     0.333032     2.763899
 H    -3.462873     0.833323     2.103474
 C    -2.025368     1.381122     3.597825
 H    -1.521379     2.110782     2.948882
 H    -1.265121     0.906883     4.236995
 H    -2.741885     1.914571     4.240220
 C    -3.449733    -0.711743     3.594220
 H    -3.965212    -1.427525     2.940615
 H    -2.730305    -1.261176     4.220808
 H    -4.195183    -0.239144     4.251729
