 106
scf done:    -2989.291543
 C    -1.059004     0.030837    -3.321166
 H    -1.502421    -0.886055    -3.721004
 H    -1.757497     0.862961    -3.223210
 C     0.323948     0.265599    -3.461738
 H     0.945201    -0.463231    -3.990883
 H     0.714178     1.287071    -3.485267
 H    -0.251533     1.261313    -1.257684
Rh    -0.113775    -0.307464    -1.408409
 C    -2.323931     1.423764     0.674553
 C    -3.589888    -0.718549    -1.051612
 C    -2.233137    -1.462117     1.314170
 C     2.325118    -0.340942     1.323443
 C     3.422727    -0.888196    -1.206313
 C     2.547749     1.816101    -0.810918
 P     2.014718     0.076704    -0.461874
 P    -2.065485    -0.234263    -0.074001
 C     0.034875    -2.196508    -1.617667
 O     0.106797    -3.335145    -1.771247
 C    -1.964850     1.709083     2.006093
 O    -1.440593     0.693140     2.706803
 C    -0.971775     0.883568     4.009923
 H    -0.179523     1.651425     4.045926
 H    -1.784512     1.165658     4.701625
 H    -0.546172    -0.078394     4.321710
 C    -2.658339     2.511264    -0.155604
 O    -2.837025     2.214803    -1.453528
 C    -3.056866     3.242355    -2.378293
 H    -3.104732     2.765595    -3.365198
 H    -2.231302     3.973757    -2.371524
 H    -4.009276     3.768150    -2.188328
 C    -2.794519     3.806145     0.357121
 H    -3.088381     4.632899    -0.287788
 C    -2.112970     2.999006     2.534855
 H    -1.869623     3.199679     3.577423
 C    -2.543092     4.028568     1.707615
 H    -2.658018     5.035020     2.116657
 C    -3.355467    -1.941505    -1.706980
 H    -2.388210    -2.428005    -1.577399
 C    -4.858014    -0.115256    -1.207071
 C    -5.353394     1.134928    -0.531611
 H    -5.384575     1.976699    -1.239794
 H    -4.748047     1.442394     0.322822
 H    -6.382091     0.977516    -0.174049
 C    -4.299582    -2.555961    -2.515430
 H    -4.065863    -3.507843    -2.997503
 C    -5.791805    -0.744087    -2.050959
 H    -6.769038    -0.267814    -2.175002
 C    -5.533155    -1.938061    -2.706347
 H    -6.292540    -2.389050    -3.349665
 C    -1.128378    -2.295747     1.495515
 H    -0.256488    -2.140532     0.860136
 C    -3.359473    -1.621933     2.153983
 C    -4.581418    -0.761902     2.070623
 H    -5.157714    -0.981266     1.159740
 H    -4.323857     0.305918     2.045109
 H    -5.236740    -0.934354     2.935504
 C    -1.113440    -3.289460     2.472127
 H    -0.232029    -3.921886     2.593614
 C    -3.324326    -2.625978     3.127400
 H    -4.194198    -2.749400     3.778843
 C    -2.221376    -3.460191     3.292184
 H    -2.231112    -4.234555     4.063367
 C     2.678026     0.528914     2.373886
 O     2.960424     1.799013     2.036631
 C     3.322235     2.730963     3.010792
 H     3.490487     3.677083     2.479667
 H     2.522404     2.876363     3.758700
 H     4.250871     2.441131     3.532772
 C     2.222140    -1.712891     1.635932
 O     1.971078    -2.528817     0.595174
 C     2.266810    -3.897265     0.673849
 H     2.149338    -4.292754    -0.342103
 H     1.572063    -4.433018     1.342010
 H     3.302352    -4.059280     1.016130
 C     2.383990    -2.191084     2.940052
 H     2.292270    -3.255279     3.153516
 C     2.805995     0.065733     3.690507
 H     3.063387     0.753613     4.494936
 C     2.651424    -1.289074     3.961565
 H     2.763702    -1.650214     4.986508
 C     3.131890    -1.677160    -2.323201
 H     2.116789    -1.652439    -2.716997
 C     4.744156    -0.875693    -0.700756
 C     5.199821    -0.033449     0.456518
 H     5.046018    -0.556984     1.413713
 H     4.663107     0.921412     0.519424
 H     6.274364     0.181382     0.364283
 C     4.094099    -2.476448    -2.932619
 H     3.828779    -3.081893    -3.802388
 C     5.697762    -1.690541    -1.326752
 H     6.720861    -1.683006    -0.939774
 C     5.387970    -2.490982    -2.421844
 H     6.161069    -3.112183    -2.881048
 C     3.545865     2.023853    -1.773011
 H     4.061936     1.167209    -2.208129
 C     1.865641     2.932398    -0.284595
 C     0.736433     2.824222     0.690033
 H     0.913317     3.460150     1.570119
 H     0.560717     1.798977     1.031976
 H    -0.194844     3.173017     0.222302
 C     3.898486     3.304053    -2.193152
 H     4.682981     3.430274    -2.942995
 C     2.243211     4.210329    -0.710620
 H     1.716570     5.073464    -0.291811
 C     3.248991     4.408348    -1.652259
 H     3.516534     5.420320    -1.966479
