 114
scf done:    -2694.326915
 C    -0.775267    -1.328214     3.173846
 H    -0.162141    -2.199015     3.429368
 H    -0.576460    -0.449705     3.791270
 C    -2.066370    -1.516507     2.613413
 H    -2.436410    -2.531455     2.434319
 H    -2.853681    -0.786898     2.816790
 H    -1.189844     0.623615     1.568224
Rh    -0.702501    -0.821238     1.092146
 C     1.547249     1.980445     0.988710
 C     2.647500    -0.410582     2.119337
 C     2.254136    -0.381839    -0.700902
 C    -1.366930    -1.360878    -2.292163
 C    -3.613184    -0.105842    -1.022688
 C    -1.330557     1.494030    -1.491704
 P    -1.749070    -0.205630    -0.898202
 P     1.405506     0.136321     0.855724
 C    -0.231002    -2.573285     0.534487
 O     0.023601    -3.644173     0.196393
 C     1.850090     2.872762    -0.060002
 O     2.071285     2.342910    -1.284972
 C     2.496366     3.169730    -2.329568
 H     2.700974     2.510988    -3.182754
 H     1.721225     3.900560    -2.619134
 H     3.422790     3.711632    -2.072614
 C     1.221775     2.559246     2.238991
 O     0.888283     1.702326     3.221164
 C     0.372238     2.189925     4.427512
 H     0.090969     1.311415     5.021538
 H    -0.524504     2.810425     4.261243
 H     1.120480     2.776416     4.988669
 C     1.243776     3.943526     2.444043
 H     0.997000     4.364522     3.417306
 C     1.893063     4.259177     0.143983
 H     2.140726     4.932450    -0.674772
 C     1.592335     4.781539     1.393416
 H     1.617276     5.862729     1.546912
 H     3.596297     0.123366     1.941990
 H     2.260510    -0.074804     3.090077
 C     2.858637    -1.916157     2.137104
 H     1.881224    -2.410754     2.258479
 H     3.255922    -2.265884     1.168231
 C     3.794945    -2.369524     3.248588
 H     3.394888    -2.027738     4.220646
 H     4.774143    -1.868518     3.135875
 C     3.999838    -3.877416     3.288681
 H     3.017543    -4.370639     3.395032
 H     4.395723    -4.214081     2.314009
 C     4.927004    -4.333729     4.403476
 H     5.054496    -5.427025     4.406235
 H     4.536186    -4.042284     5.391850
 H     5.927390    -3.882496     4.301487
 H     2.074545    -1.470249    -0.728727
 H     1.665194     0.029892    -1.531456
 C     3.736802    -0.086549    -0.866906
 H     3.946344     0.963192    -0.606542
 H     4.323472    -0.699551    -0.161540
 C     4.224015    -0.357940    -2.283333
 H     3.642829     0.266073    -2.986750
 H     3.992729    -1.403782    -2.557126
 C     5.708548    -0.094377    -2.488093
 H     5.932122     0.948878    -2.201410
 H     6.287312    -0.723698    -1.789192
 C     6.176657    -0.346727    -3.912195
 H     7.252603    -0.147780    -4.031056
 H     5.639393     0.295728    -4.629143
 H     5.996726    -1.391815    -4.211867
 C    -0.489851    -1.128327    -3.368562
 O     0.050851     0.107595    -3.470183
 C     0.833115     0.427579    -4.582687
 H     1.070722     1.495645    -4.497230
 H     1.775438    -0.147650    -4.606305
 H     0.289199     0.261449    -5.528727
 C    -1.906172    -2.660893    -2.172215
 O    -2.723076    -2.849582    -1.116929
 C    -3.142980    -4.141499    -0.775645
 H    -3.700986    -4.044074     0.164224
 H    -2.281946    -4.811179    -0.615633
 H    -3.807720    -4.572852    -1.544188
 C    -1.603384    -3.678189    -3.081991
 H    -2.028843    -4.673950    -2.966260
 C    -0.181399    -2.141050    -4.286803
 H     0.500041    -1.950356    -5.114390
 C    -0.740718    -3.403766    -4.134835
 H    -0.494052    -4.191165    -4.850732
 H    -3.852347     0.849778    -1.518988
 H    -3.948563    -0.905056    -1.697212
 C    -4.329531    -0.215102     0.309600
 H    -4.056651    -1.175744     0.773893
 H    -3.948896     0.556585     1.000873
 C    -5.841695    -0.102103     0.190560
 H    -6.214562    -0.879958    -0.501609
 H    -6.107218     0.863624    -0.278685
 C    -6.562050    -0.228130     1.525969
 H    -6.288026    -1.191093     1.992308
 H    -6.184038     0.549638     2.213010
 C    -8.074379    -0.122731     1.414613
 H    -8.564055    -0.217346     2.395954
 H    -8.482929    -0.911321     0.761892
 H    -8.376661     0.845928     0.984350
 H    -0.242302     1.553598    -1.620520
 H    -1.780053     1.638567    -2.487592
 C    -1.792502     2.573258    -0.522963
 H    -2.870981     2.474169    -0.306829
 H    -1.279402     2.427181     0.441314
 C    -1.516620     3.976345    -1.044029
 H    -2.094942     4.153000    -1.969913
 H    -0.453483     4.047279    -1.333093
 C    -1.822974     5.068330    -0.030075
 H    -2.891781     5.021865     0.244826
 H    -1.262024     4.854456     0.895836
 C    -1.476659     6.463220    -0.523556
 H    -1.710298     7.233643     0.227384
 H    -2.031314     6.715664    -1.442070
 H    -0.402070     6.542172    -0.757038
