  82
scf done:    -2226.905896
 C     0.901524    -2.504676    -1.723777
 H     1.522421    -2.123368    -2.540252
 H     1.415114    -3.213701    -1.069142
 C    -0.502351    -2.558441    -1.868200
 H    -0.963234    -2.219616    -2.801586
 H    -1.081120    -3.320456    -1.340136
 H     0.003452    -1.993120     0.622280
Rh     0.033582    -0.906392    -0.557555
 C     1.843102    -0.598136     2.423840
 C     3.407133    -1.159911     0.014586
 C     2.385328     1.563863     0.613555
 C    -1.649897     0.342979     2.262961
 C    -2.520389     1.434007    -0.319737
 C    -3.339201    -1.251888     0.615655
 P    -1.900282    -0.094308     0.479218
 P     1.939575    -0.232840     0.607856
 C     0.026307     0.375134    -1.962308
 O    -0.010810     1.145534    -2.812025
 H     1.595411    -1.669274     2.492874
 C     2.974892    -0.209155     3.357417
 H     3.185778     0.869013     3.304162
 H     3.906923    -0.749812     3.138174
 H     0.921697    -0.077436     2.718989
 H     2.698956    -0.440368     4.398314
 C     3.854634    -2.265319     0.750633
 H     3.378016    -2.515572     1.699540
 C     4.003400    -0.881119    -1.237277
 C     3.536417     0.235427    -2.120738
 H     3.677062     1.225304    -1.661192
 H     2.460414     0.141623    -2.325809
 H     4.070990     0.224999    -3.080063
 C     4.896819    -3.069180     0.297024
 H     5.225385    -3.922472     0.894918
 C     5.054628    -1.697360    -1.669071
 H     5.520825    -1.478204    -2.633708
 C     5.509783    -2.777019    -0.917168
 H     6.331629    -3.394365    -1.287197
 C     1.289386     2.412827     0.400517
 H     0.320510     1.959982     0.179890
 C     3.657659     2.134259     0.857591
 C     4.928289     1.350887     1.031221
 H     4.782176     0.396682     1.545173
 H     5.665716     1.940919     1.593714
 H     5.375860     1.107998     0.053812
 C     1.407555     3.797513     0.438519
 H     0.528924     4.421667     0.259949
 C     3.753928     3.533488     0.887191
 H     4.734083     3.981247     1.074091
 C     2.654733     4.362372     0.685618
 H     2.778170     5.447724     0.715559
 H    -0.843674     1.094647     2.281398
 C    -2.827063     0.762234     3.125550
 H    -3.620277     0.000516     3.114303
 H    -3.267205     1.715999     2.800561
 H    -1.201271    -0.581199     2.660484
 H    -2.503491     0.889687     4.170420
 C    -2.306527     2.678426     0.289179
 H    -1.866667     2.730181     1.286514
 C    -3.069380     1.385799    -1.621590
 C    -3.315517     0.091322    -2.338662
 H    -4.247039    -0.388750    -1.997171
 H    -2.508016    -0.633011    -2.152267
 H    -3.398084     0.255357    -3.421827
 C    -2.640201     3.866792    -0.354669
 H    -2.466805     4.823447     0.144080
 C    -3.398286     2.592650    -2.248136
 H    -3.818905     2.558882    -3.256874
 C    -3.194169     3.823457    -1.630873
 H    -3.459157     4.746726    -2.151227
 C    -2.967341    -2.601809     0.692050
 H    -1.904320    -2.841764     0.613718
 C    -4.709523    -0.908263     0.713336
 C    -5.256819     0.491205     0.658684
 H    -5.327430     0.860489    -0.376196
 H    -4.638346     1.214493     1.199459
 H    -6.268421     0.515219     1.087553
 C    -3.904813    -3.616154     0.853428
 H    -3.578923    -4.657130     0.912647
 C    -5.636585    -1.951401     0.857710
 H    -6.697351    -1.694665     0.927326
 C    -5.254399    -3.286863     0.926385
 H    -6.012193    -4.065631     1.042153
