  94
scf done:    -3228.800294
 C    -0.518824    -3.655498    -0.328845
 H    -1.147031    -4.112369     0.441010
 H    -0.963556    -3.658335    -1.326653
 C     0.884124    -3.626028    -0.167259
 H     1.335334    -4.051482     0.733560
 H     1.543677    -3.636612    -1.038412
 H     0.221199    -1.442796    -1.376672
Rh     0.086083    -1.647697     0.196001
 C    -2.009611     0.672755    -1.560769
 C    -3.421150    -1.401553    -0.168954
 C    -2.283850     0.650456     1.384362
 C     2.747803     0.057357     1.750540
 C     3.306681    -0.750607    -0.931527
 C     1.680864     1.447930    -0.397624
 P     1.912539    -0.275376     0.174112
 P    -1.880316    -0.405490    -0.067512
 C     0.033624    -1.913719     2.087290
 O     0.082029    -2.083395     3.220106
 C    -2.173224     2.074806    -1.570224
 O    -2.370919     2.686157    -0.391734
 C    -2.743864     4.042483    -0.348835
 H    -2.970914     4.255633     0.703469
 H    -1.920168     4.696706    -0.683977
 H    -3.644890     4.227003    -0.957612
 C    -1.856713     0.025257    -2.808024
 O    -1.817872    -1.316079    -2.759361
 C    -1.496439    -2.052461    -3.904860
 H    -1.446458    -3.103295    -3.594225
 H    -0.517838    -1.752574    -4.317627
 H    -2.266517    -1.947733    -4.688359
 C    -1.788875     0.742165    -4.007047
 H    -1.660504     0.227816    -4.958433
 C    -2.121779     2.796000    -2.772451
 H    -2.217296     3.880468    -2.763836
 C    -1.919306     2.126591    -3.971007
 H    -1.871962     2.696675    -4.901959
 C    -4.446542    -1.146314    -1.083569
 H    -4.342061    -0.330968    -1.802959
 C    -3.581561    -2.443291     0.752607
 H    -2.783644    -2.651486     1.469511
 C    -5.607856    -1.916686    -1.087414
 H    -6.415008    -1.732174    -1.798806
 C    -4.739307    -3.213431     0.769180
 H    -4.877824    -4.025942     1.484635
 C    -5.738312    -2.941466    -0.159223
 F    -6.845721    -3.681506    -0.157937
 C    -3.597254     0.965915     1.752248
 H    -4.435625     0.577236     1.170374
 C    -1.230756     1.148801     2.154703
 H    -0.205224     0.890471     1.889310
 C    -3.849970     1.779120     2.851738
 H    -4.867656     2.031315     3.155832
 C    -1.463961     1.976702     3.248973
 H    -0.640347     2.374752     3.844054
 C    -2.776822     2.281367     3.582332
 F    -3.019460     3.065252     4.631557
 C     2.631489     1.288340     2.401390
 O     1.919260     2.320158     1.896384
 C     0.620477     4.399908    -0.825185
 H     0.711866     4.248235     1.261737
 H     0.928075     6.840566    -0.376691
 H     1.203016     7.483265    -0.063048
 C     3.409721    -0.998179     2.414122
 O     3.447348    -2.155688     1.733831
 C     4.007365    -3.294198     2.327844
 H     3.893497    -4.108734     1.602159
 H     3.480971    -3.562649     3.259613
 H     5.080258    -3.153456     2.544322
 C     3.958837    -0.814057     3.683069
 H     4.470257    -1.628115     4.195120
 C     3.179952     1.482381     3.675128
 H     3.068006     2.459337     4.146711
 C     3.834470     0.432447     4.300317
 H     4.260709     0.579464     5.295320
 C     3.058470    -1.523313    -2.068439
 H     2.039520    -1.870035    -2.257198
 C     4.611314    -0.308921    -0.681289
 H     4.820503     0.295690     0.204889
 C     4.087658    -1.850186    -2.948571
 H     3.910078    -2.453124    -3.840965
 C     5.650725    -0.636203    -1.545121
 H     6.674460    -0.304465    -1.362227
 C     5.373080    -1.403712    -2.671602
 F     6.364907    -1.718964    -3.501645
 C     1.848448     2.607566     0.510647
 H     2.763097     3.167927     0.218695
 C     1.382718     1.624616    -1.724124
 H     1.238633     0.718727    -2.320366
 C     0.664480     3.591313     0.374928
 H    -0.302347     3.061297     0.484319
 C     1.233539     2.829631    -2.448184
 H     0.925332     2.722106    -3.496054
 C     1.270689     4.152768    -1.986250
 F     1.481301     5.113072    -2.896593
