  94
scf done:    -2832.173732
 C    -1.340458    -0.515028    -3.211015
 H    -1.888500    -1.449737    -3.364837
 H    -1.970650     0.378795    -3.240088
 C     0.021650    -0.432871    -3.592778
 H     0.500549    -1.312400    -4.035763
 H     0.438920     0.517366    -3.937973
 H    -0.287189     1.044467    -1.551070
Rh    -0.129865    -0.521007    -1.430618
 C    -2.874679     1.307413    -0.415700
 C    -3.105086    -1.527824     0.243632
 C    -1.556293     0.058046     1.860283
 C     2.158238    -0.325360     1.340897
 C     3.404036    -0.780522    -1.166566
 C     2.507015     1.769544    -0.678219
 P     1.899151     0.039418    -0.447777
 P    -1.867996    -0.160776     0.058543
 C     0.150219    -2.413955    -1.338780
 O     0.349747    -3.545268    -1.345967
 C    -2.308010     2.589277    -0.255758
 O    -1.076979     2.622978     0.280561
 C    -0.351248     3.821418     0.268587
 H     0.675033     3.558602     0.544741
 H    -0.336068     4.273328    -0.736273
 H    -0.763378     4.552518     0.987299
 C    -4.108976     1.220821    -1.092957
 O    -4.551080    -0.011285    -1.385799
 C    -5.821163    -0.204836    -1.935414
 H    -5.959136    -1.291593    -2.003247
 H    -5.903868     0.233892    -2.945236
 H    -6.613077     0.217840    -1.293132
 C    -4.808635     2.375275    -1.470934
 H    -5.772669     2.296911    -1.971648
 C    -2.997876     3.746030    -0.639694
 H    -2.560829     4.731060    -0.482970
 C    -4.250037     3.623763    -1.229930
 H    -4.795375     4.523022    -1.526117
 C    -3.097934    -2.600710    -0.648288
 C    -4.050472    -1.510285     1.276210
 C    -4.970680    -3.605637     0.499894
 C    -4.980308    -2.538546     1.399500
 C    -4.024389    -3.635235    -0.522456
 H    -2.367536    -2.610508    -1.458042
 H    -4.002299    -4.470074    -1.227438
 H    -5.695692    -4.417060     0.602440
 H    -5.714155    -2.510912     2.209066
 H    -4.060107    -0.684604     1.991481
 C    -2.056485     1.096469     2.649079
 C    -0.858676    -0.989348     2.475090
 C    -1.182168     0.030602     4.638016
 C    -0.683318    -1.010273     3.854475
 C    -1.863325     1.084572     4.031393
 H    -2.622701     1.908174     2.189364
 H    -2.265157     1.899662     4.639336
 H    -1.041217     0.018237     5.721689
 H    -0.142439    -1.838409     4.316662
 H    -0.464845    -1.803272     1.859708
 C     2.028356     0.592686     2.400507
 O     1.571021     1.821604     2.102544
 C     1.427006     2.758108     3.135259
 H     1.051631     3.677927     2.673057
 H     0.698640     2.414039     3.887758
 H     2.391219     2.977394     3.625449
 C     2.440327    -1.667943     1.675985
 O     2.356612    -2.538852     0.658475
 C     2.839068    -3.846712     0.793579
 H     2.704854    -4.322615    -0.184952
 H     2.268144    -4.415831     1.546908
 H     3.909011    -3.851286     1.061888
 C     2.769243    -2.048470     2.980316
 H     3.023255    -3.081959     3.212263
 C     2.367116     0.221922     3.710544
 H     2.298278     0.941255     4.524062
 C     2.751601    -1.083905     3.981597
 H     3.011694    -1.364477     5.005016
 C     3.319340    -1.312324    -2.453209
 C     4.629867    -0.829336    -0.491369
 C     5.650817    -1.944124    -2.377538
 C     5.743041    -1.411546    -1.090199
 C     4.437026    -1.889717    -3.057314
 H     2.359758    -1.272190    -2.971938
 H     4.353051    -2.303562    -4.065338
 H     6.525864    -2.400225    -2.847127
 H     6.691555    -1.449551    -0.548181
 H     4.713235    -0.427568     0.521199
 C     2.011614     2.503365    -1.757631
 C     3.535083     2.321482     0.096945
 C     3.518980     4.323422    -1.257769
 C     4.028246     3.591944    -0.182768
 C     2.516408     3.770909    -2.049876
 H     1.208452     2.070613    -2.358324
 H     2.116282     4.329107    -2.900062
 H     3.910946     5.319336    -1.478825
 H     4.821953     4.013218     0.439437
 H     3.952095     1.757938     0.933851
