  96
scf done:    -2610.093075
 C     0.944284    -1.062069     3.040169
 H     1.608306    -1.929289     3.084064
 H     1.425806    -0.113820     3.296632
 C    -0.440343    -1.229463     3.245183
 H    -0.834862    -2.233399     3.429535
 H    -1.036176    -0.430535     3.694027
 H    -0.088119     0.663829     1.524282
Rh    -0.082952    -0.867748     1.129541
 C     2.425010     1.362019     0.882224
 C     3.356353    -1.302057     0.184091
 C     2.032327     0.251295    -1.774860
 C    -1.734674     0.941879    -1.346000
 C    -3.161593    -1.476190    -0.467449
 C    -3.149342     0.940900     1.127251
 P    -2.031591    -0.134023     0.114486
 P     1.891684    -0.173521     0.021439
 C    -0.303361    -2.707959     0.662472
 O    -0.533605    -3.801173     0.398379
 C     1.610315     2.503218     0.797364
 H     0.709349     2.488392     0.178150
 C     3.530033     1.382633     1.732547
 H     4.154786     0.490146     1.825161
 C     1.934666     3.642497     1.521870
 H     1.302412     4.530540     1.445082
 C     3.856820     2.520573     2.485415
 C     5.042578     2.496264     3.405909
 H     4.883622     1.788914     4.235885
 H     5.952361     2.171766     2.877223
 H     5.236563     3.486415     3.841416
 C     3.051075     3.653034     2.361111
 H     3.292269     4.551825     2.935142
 C     3.125841    -2.525065     0.825154
 H     2.121525    -2.724583     1.198965
 C     4.649142    -1.029944    -0.329311
 C     5.025291     0.217691    -1.075367
 H     4.567383     1.118872    -0.650441
 H     4.702020     0.160039    -2.126481
 H     6.116565     0.349029    -1.066544
 C     4.125989    -3.479588     0.980230
 H     3.905909    -4.424489     1.481933
 C     5.644149    -2.001211    -0.151930
 H     6.645687    -1.792909    -0.538429
 C     5.398933    -3.211840     0.488825
 H     6.203798    -3.942479     0.600953
 C     2.272914     1.560655    -2.206832
 H     2.349028     2.366000    -1.475904
 C     1.940666    -0.782874    -2.735156
 C     1.643774    -2.205375    -2.365786
 H     0.853762    -2.263093    -1.602641
 H     2.526990    -2.707974    -1.941566
 H     1.319789    -2.777704    -3.245999
 C     2.461177     1.859419    -3.552059
 H     2.655522     2.890677    -3.855598
 C     2.145400    -0.462081    -4.082691
 H     2.088142    -1.264832    -4.823349
 C     2.413940     0.839157    -4.497390
 H     2.573710     1.054647    -5.556706
 C    -1.125206     0.416184    -2.492883
 H    -0.833041    -0.634360    -2.526288
 C    -2.014409     2.312096    -1.300651
 H    -2.471357     2.738561    -0.404451
 C    -0.884372     1.233828    -3.590899
 H    -0.429608     0.809859    -4.487496
 C    -1.730882     3.155810    -2.381422
 C    -1.997096     4.630260    -2.283381
 H    -2.866130     4.840999    -1.643134
 H    -1.133142     5.156560    -1.843547
 H    -2.181462     5.074583    -3.272166
 C    -1.183707     2.593011    -3.537611
 H    -0.973848     3.229520    -4.401602
 C    -3.366076    -1.733554    -1.828647
 H    -2.920724    -1.078607    -2.577003
 C    -3.792416    -2.303842     0.490144
 C    -3.684277    -2.065720     1.966181
 H    -4.379463    -1.274243     2.290001
 H    -2.674339    -1.735092     2.245790
 H    -3.926297    -2.979081     2.527258
 C    -4.158633    -2.793116    -2.257839
 H    -4.299571    -2.965419    -3.327437
 C    -4.583915    -3.365404     0.034664
 H    -5.067371    -4.007394     0.776178
 C    -4.769401    -3.620029    -1.319881
 H    -5.391098    -4.459612    -1.639779
 C    -2.621106     1.465786     2.311664
 H    -1.588580     1.218042     2.563537
 C    -4.473532     1.277286     0.753174
 C    -5.132300     0.825440    -0.518153
 H    -5.463958    -0.222113    -0.454068
 H    -4.453925     0.891942    -1.379179
 H    -6.014239     1.446804    -0.727571
 C    -3.369199     2.287976     3.149205
 H    -2.925061     2.681307     4.066411
 C    -5.210842     2.098433     1.616629
 H    -6.234458     2.360556     1.334981
 C    -4.680294     2.596413     2.803327
 H    -5.290359     3.234127     3.447882
