  92
scf done:    -2530.593833
 C     0.358902    -3.649194    -0.672710
 H     0.654515    -3.899537    -1.695085
 H     1.123661    -3.844911     0.082457
 C    -1.001528    -3.622172    -0.312146
 H    -1.773664    -3.854073    -1.050655
 H    -1.298093    -3.796646     0.724870
 H     0.092313    -1.717121     0.991968
Rh    -0.295574    -1.575634    -0.539044
 O     2.129883     0.213452     0.767685
 O     2.969724    -1.307809    -1.119557
 O     1.816384     0.785803    -1.726189
 O    -2.519274     0.786023    -0.790093
 O    -3.383171    -1.181399     0.603984
 O    -1.901686     0.453225     1.686431
 P    -2.011188    -0.389835     0.288831
 P     1.655265    -0.473817    -0.684676
 C    -0.819858    -1.425649    -2.387763
 O    -1.155187    -1.319376    -3.475811
 C     3.410447     0.460419     1.171339
 C     3.977191    -0.373025     2.137638
 H     3.391080    -1.212097     2.516505
 C     4.131789     1.542059     0.663221
 H     3.667686     2.188975    -0.080849
 C     5.273761    -0.129152     2.584095
 H     5.716192    -0.785241     3.337412
 C     5.432102     1.771599     1.108954
 H     5.997192     2.614849     0.704466
 C     6.008972     0.938265     2.067333
 H     7.027678     1.123396     2.414713
 C     4.121086    -0.820364    -1.811393
 H     4.050231    -1.167479    -2.855888
 H     4.117611     0.278732    -1.832512
 C     5.376300    -1.340991    -1.150822
 H     5.357814    -1.054816    -0.087730
 H     5.371582    -2.443914    -1.178793
 C     6.640904    -0.798503    -1.800483
 H     6.603222     0.305459    -1.790144
 H     6.670446    -1.090222    -2.865533
 C     7.907939    -1.265741    -1.102865
 H     7.914879    -0.945866    -0.048502
 H     7.988785    -2.364474    -1.114345
 H     8.810959    -0.859883    -1.583503
 C     0.745778     1.703798    -1.931873
 H     0.669737     1.858370    -3.020329
 H    -0.201986     1.255006    -1.591242
 C     1.001341     3.015198    -1.218722
 H     0.084641     3.626808    -1.285124
 H     1.151159     2.805827    -0.144968
 C     2.187176     3.793968    -1.771908
 H     1.960534     4.105336    -2.806531
 H     3.053580     3.115625    -1.856075
 C     2.555354     5.006393    -0.933251
 H     1.707620     5.704824    -0.845531
 H     2.841621     4.710610     0.089436
 H     3.399897     5.562020    -1.368142
 C    -3.727800     1.422593    -0.737382
 C    -4.004711     2.370662     0.249514
 H    -3.252001     2.590305     1.007065
 C    -4.676089     1.124799    -1.717107
 H    -4.428193     0.379654    -2.475177
 C    -5.242303     3.012038     0.255377
 H    -5.460620     3.750790     1.030247
 C    -5.906736     1.776062    -1.705697
 H    -6.647365     1.542101    -2.474181
 C    -6.196725     2.718202    -0.717922
 H    -7.164571     3.223969    -0.708415
 C    -4.278704    -1.062335     1.710643
 H    -4.246020    -2.030824     2.237574
 H    -3.917857    -0.286445     2.399636
 C    -5.685303    -0.764350     1.239710
 H    -6.332854    -0.753246     2.135011
 H    -5.722987     0.254064     0.821003
 C    -6.222393    -1.756732     0.219714
 H    -6.191252    -2.775694     0.645661
 H    -5.539944    -1.770882    -0.645599
 C    -7.633321    -1.427055    -0.237699
 H    -8.343108    -1.435664     0.605613
 H    -7.674280    -0.423458    -0.690402
 H    -7.997388    -2.147801    -0.985665
 C    -0.773132     1.275579     1.960872
 H     0.051135     1.014149     1.280176
 H    -1.056597     2.325337     1.769366
 C    -0.326324     1.090519     3.393159
 H     0.490006     1.811269     3.576881
 H    -1.149731     1.372709     4.073284
 C     0.152350    -0.320524     3.702970
 H     0.938726    -0.589729     2.979219
 H    -0.675213    -1.025342     3.519541
 C     0.669361    -0.478230     5.122696
 H     1.532223     0.181779     5.309679
 H    -0.104975    -0.225287     5.865327
 H     0.993325    -1.511163     5.321936
