 106
scf done:    -2989.316545
 C    -1.081080    -0.294008    -3.428144
 H    -1.725801    -1.147414    -3.660433
 H    -1.577417     0.676045    -3.526307
 C     0.317005    -0.398666    -3.639052
 H     0.723396    -1.337144    -4.030715
 H     0.897889     0.484204    -3.920701
 H    -0.042353     1.120206    -1.639026
Rh    -0.110958    -0.451858    -1.514698
 C    -2.686561     1.732100    -0.751728
 C    -3.351489    -1.056111    -0.189811
 C    -1.772603     0.285927     1.609503
 C     1.836544    -0.536220     1.522165
 C     3.284619    -1.213832    -0.815731
 C     2.714127     1.451543    -0.439626
 P     1.844130    -0.169224    -0.287240
 P    -1.937587     0.135415    -0.215676
 C    -0.110749    -2.363543    -1.404375
 O    -0.075092    -3.511931    -1.391973
 C    -1.968022     2.923171    -0.516973
 O    -0.798143     2.785046     0.128254
 C     0.080381     3.873371     0.205010
 H     1.029926     3.471960     0.573175
 H     0.253067     4.322634    -0.786332
 H    -0.296732     4.651503     0.893139
 C    -3.855846     1.822543    -1.536259
 O    -4.436778     0.666719    -1.891210
 C    -5.665666     0.656811    -2.555366
 H    -5.944248    -0.399648    -2.660702
 H    -5.595998     1.113602    -3.558253
 H    -6.447676     1.178100    -1.976332
 C    -4.354123     3.065379    -1.951546
 H    -5.271345     3.124312    -2.535856
 C    -2.455407     4.166892    -0.938331
 H    -1.903315     5.080833    -0.724559
 C    -3.654101     4.223250    -1.638727
 H    -4.042456     5.191229    -1.964356
 C    -3.411690    -2.098721    -1.113069
 H    -2.621165    -2.193047    -1.858607
 C    -4.382265    -0.936310     0.749803
 H    -4.353118    -0.132734     1.489616
 C    -4.478259    -2.995611    -1.106461
 H    -4.502327    -3.805846    -1.840987
 C    -5.447705    -1.828664     0.749672
 H    -6.245212    -1.712901     1.489762
 C    -5.515856    -2.878316    -0.176851
 C    -6.648808    -3.862223    -0.144476
 H    -6.478338    -4.634660     0.624296
 H    -7.603368    -3.371247     0.097817
 H    -6.762974    -4.379239    -1.108131
 C    -2.143894     1.385418     2.381603
 H    -2.524843     2.288608     1.902638
 C    -1.323787    -0.870708     2.261992
 H    -1.032457    -1.741387     1.667403
 C    -2.055007     1.331776     3.774269
 H    -2.350760     2.205253     4.363433
 C    -1.262612    -0.927040     3.646372
 H    -0.913822    -1.842672     4.130156
 C    -1.615072     0.179793     4.430600
 C    -1.495933     0.121634     5.924766
 H    -2.035125    -0.745322     6.337776
 H    -0.441120     0.016484     6.229616
 H    -1.896019     1.028242     6.400706
 C     1.736771     0.407586     2.562290
 O     1.505812     1.687267     2.219552
 C     1.419431     2.653225     3.230203
 H     1.245264     3.613135     2.731125
 H     0.576229     2.446316     3.909866
 H     2.355315     2.722147     3.811229
 C     1.880198    -1.899753     1.887203
 O     1.769803    -2.766144     0.868244
 C     2.061237    -4.123932     1.047907
 H     1.961013    -4.589132     0.060159
 H     1.350772    -4.605473     1.741422
 H     3.090500    -4.264811     1.418938
 C     2.018683    -2.303498     3.218412
 H     2.093579    -3.359299     3.475627
 C     1.880570     0.011918     3.901105
 H     1.840954     0.747760     4.701961
 C     2.041319    -1.331323     4.212010
 H     2.153984    -1.630207     5.256993
 C     3.281483    -1.757232    -2.098621
 H     2.409901    -1.591117    -2.734454
 C     4.402257    -1.435183    -0.001037
 H     4.427666    -1.034340     1.015086
 C     4.364383    -2.507423    -2.557773
 H     4.335232    -2.927232    -3.567413
 C     5.475423    -2.189201    -0.459738
 H     6.333036    -2.357418     0.198784
 C     5.479580    -2.739086    -1.749998
 C     6.654658    -3.532150    -2.243069
 H     7.514000    -2.874953    -2.456748
 H     6.989223    -4.265861    -1.493495
 H     6.415110    -4.075002    -3.168357
 C     3.727350     1.857894     0.439133
 H     3.972935     1.247780     1.310690
 C     2.447560     2.248997    -1.551657
 H     1.655998     1.940942    -2.238509
 C     4.421365     3.041248     0.224374
 H     5.198091     3.343553     0.933211
 C     3.157432     3.429419    -1.773243
 H     2.925817     4.036611    -2.653119
 C     4.150366     3.852534    -0.887952
 C     4.923748     5.117308    -1.121090
 H     5.966488     4.896334    -1.402815
 H     4.481688     5.717625    -1.928706
 H     4.961315     5.739898    -0.213623
