 104
scf done:    -2315.119694
 C     0.664725     3.225803     1.294708
 H     0.047353     4.050322     0.923220
 H     0.511549     3.003714     2.354945
 C     1.936963     2.991733     0.702994
 H     2.272337     3.638776    -0.114053
 H     2.751660     2.586890     1.309718
 H     1.038569     0.749656     1.432790
Rh     0.560422     1.455456     0.087508
 C    -1.195000    -1.232323     1.469051
 C    -2.535969     1.274063     1.758271
 C    -2.525659    -0.051351    -0.814543
 C     0.610355    -1.199260    -2.169751
 C     3.148472     0.049904    -2.006006
 C     2.216464    -1.679804     0.147760
 P     1.667059    -0.307850    -0.952848
 P    -1.420399     0.369423     0.597598
 C    -0.026663     2.378897    -1.468169
 O    -0.403045     2.954847    -2.390053
 C    -1.538725    -2.468100     0.907569
 H    -2.017610    -2.520312    -0.070404
 C    -0.560487    -1.217130     2.717556
 H    -0.248671    -0.259324     3.144679
 C    -1.242170    -3.650118     1.584828
 H    -1.505157    -4.611073     1.134926
 C    -0.271669    -2.392183     3.416612
 C     0.391656    -2.332890     4.762211
 H     1.216697    -1.604622     4.770071
 H    -0.323337    -2.022049     5.541543
 H     0.797053    -3.311393     5.056237
 C    -0.615043    -3.615374     2.827335
 H    -0.382893    -4.548496     3.347761
 H    -3.385027     0.628029     2.037679
 H    -1.943997     1.445663     2.671963
 C    -3.006399     2.603865     1.188531
 H    -2.127102     3.162823     0.827028
 H    -3.640622     2.428479     0.301439
 C    -3.775356     3.450833     2.192353
 H    -3.137322     3.631877     3.076551
 H    -4.648843     2.884237     2.564149
 C    -4.240933     4.784769     1.625558
 H    -3.363454     5.342171     1.252978
 H    -4.873461     4.599803     0.739096
 C    -5.001754     5.636257     2.628842
 H    -5.323847     6.592710     2.189835
 H    -4.379953     5.867203     3.508830
 H    -5.903225     5.116644     2.992120
 H    -2.562643     0.855762    -1.439672
 H    -1.964987    -0.781917    -1.420141
 C    -3.931423    -0.554068    -0.512487
 H    -3.908296    -1.304044     0.296323
 H    -4.550641     0.275264    -0.130038
 C    -4.599232    -1.162502    -1.738634
 H    -3.974350    -1.995646    -2.111001
 H    -4.610296    -0.419030    -2.556316
 C    -6.013598    -1.662845    -1.484529
 H    -5.994179    -2.394984    -0.657617
 H    -6.635639    -0.824375    -1.124159
 C    -6.659405    -2.290461    -2.709212
 H    -7.679738    -2.644117    -2.496963
 H    -6.076399    -3.153893    -3.069007
 H    -6.723088    -1.569896    -3.540486
 C     0.134902    -0.491291    -3.282722
 H     0.453018     0.539237    -3.456899
 C     0.155289    -2.507427    -1.969653
 H     0.505134    -3.083194    -1.112033
 C    -0.777987    -1.076859    -4.153550
 H    -1.146147    -0.510591    -5.012474
 C    -0.780113    -3.103248    -2.824868
 C    -1.269860    -4.499790    -2.569741
 H    -0.853243    -5.208988    -3.303552
 H    -0.979373    -4.849933    -1.568940
 H    -2.366427    -4.560481    -2.649070
 C    -1.245287    -2.369242    -3.920521
 H    -1.981976    -2.812761    -4.596194
 H     3.627807    -0.908162    -2.273403
 H     2.748588     0.471331    -2.943417
 C     4.138904     1.029699    -1.396621
 H     3.585300     1.923514    -1.067788
 H     4.581984     0.604165    -0.480798
 C     5.252377     1.428270    -2.354337
 H     4.807754     1.862144    -3.268945
 H     5.799015     0.526870    -2.687791
 C     6.235736     2.422295    -1.751945
 H     5.681089     3.315155    -1.413379
 H     6.677410     1.984525    -0.839088
 C     7.342222     2.836484    -2.708293
 H     8.035183     3.554049    -2.243234
 H     6.930497     3.311262    -3.613567
 H     7.934479     1.966563    -3.035593
 H     1.292093    -2.087189     0.589425
 H     2.663127    -2.473959    -0.475124
 C     3.154673    -1.281903     1.276682
 H     4.124035    -0.944496     0.873032
 H     2.721946    -0.413636     1.802259
 C     3.385906    -2.418358     2.262617
 H     3.855122    -3.273403     1.742059
 H     2.407035    -2.786513     2.617745
 C     4.241486    -2.021571     3.457107
 H     5.217362    -1.648174     3.099185
 H     3.767636    -1.164630     3.968585
 C     4.457738    -3.154164     4.447519
 H     5.077033    -2.838468     5.300832
 H     4.959988    -4.011412     3.970846
 H     3.498734    -3.519202     4.849482
