 110
scf done:    -3290.109196
 C    -0.497025     2.889245    -2.036521
 H    -0.874789     2.651240    -3.035338
 H    -1.202816     3.437685    -1.406651
 C     0.889588     3.005506    -1.808832
 H     1.597370     2.855152    -2.628947
 H     1.261227     3.643554    -1.004687
 H    -0.113327     1.924690     0.325966
Rh     0.179720     1.102915    -1.004519
 C    -3.103703     1.551715    -0.522823
 O    -2.640549    -0.959476    -1.059457
 O    -1.911167    -0.283553     1.233168
 C     1.799376    -1.157612     1.306317
 O     3.169918    -0.095350    -0.831831
 O     2.684264     1.301018     1.264189
 P     1.915241     0.286213     0.182285
 P    -1.803004     0.272937    -0.335097
 C     0.539922     0.172354    -2.645363
 O     0.770550    -0.347510    -3.638284
 C    -3.276286     2.549867     0.456159
 O    -2.563921     2.403920     1.592284
 C    -2.652186     3.382825     2.588629
 H    -3.674962     3.462811     2.996048
 H    -1.975518     3.070416     3.393072
 H    -2.331202     4.371583     2.219079
 C    -3.728405     1.741516    -1.774925
 O    -3.400803     0.880974    -2.751749
 C    -3.931582     1.043608    -4.036276
 H    -3.496813     0.245618    -4.650859
 H    -3.659379     2.021441    -4.470414
 H    -5.030511     0.940553    -4.041747
 C    -4.606191     2.813733    -1.983202
 H    -5.109851     2.940057    -2.940253
 C    -4.145774     3.627282     0.248469
 H    -4.297182     4.379566     1.020701
 C    -4.813920     3.735107    -0.965342
 H    -5.497187     4.571591    -1.129363
 C    -2.224358    -2.226046    -1.336325
 C    -0.888175    -2.610425    -1.427674
 H    -0.094974    -1.888223    -1.239839
 C    -3.265134    -3.154887    -1.518629
 C    -4.684133    -2.703274    -1.367697
 H    -4.870097    -2.346646    -0.341472
 H    -4.899546    -1.854268    -2.034313
 H    -5.385798    -3.519321    -1.588336
 C    -0.573691    -3.936216    -1.721179
 H     0.475797    -4.226853    -1.794728
 C    -2.918035    -4.475380    -1.805508
 H    -3.717778    -5.208146    -1.945231
 C    -1.584002    -4.873484    -1.912090
 H    -1.339565    -5.913233    -2.140788
 C    -2.992960    -0.984050     1.719014
 C    -4.202731    -0.329087     1.968747
 H    -4.278617     0.735368     1.763424
 C    -2.850552    -2.354918     1.993099
 C    -1.570799    -3.098628     1.766288
 H    -1.708118    -3.891244     1.015213
 H    -0.769796    -2.439499     1.417226
 H    -1.232498    -3.576807     2.697669
 C    -5.293230    -1.030159     2.471058
 H    -6.233828    -0.505592     2.654550
 C    -3.965923    -3.033227     2.503433
 H    -3.867523    -4.102025     2.713993
 C    -5.178056    -2.393708     2.737052
 H    -6.028724    -2.955866     3.129066
 C     1.237533    -0.978830     2.588958
 O     0.719376     0.228491     2.855567
 C    -0.176781     0.359337     3.925184
 H    -0.631778     1.350953     3.824010
 H    -0.973492    -0.400144     3.874754
 H     0.335893     0.298138     4.900811
 C     2.156942    -2.465389     0.918887
 O     2.482830    -2.654460    -0.372941
 C     3.149687    -3.830953    -0.748711
 H     3.390486    -3.723036    -1.812893
 H     2.513490    -4.722351    -0.615153
 H     4.086579    -3.954516    -0.180741
 C     2.141778    -3.515112     1.845877
 H     2.459785    -4.514681     1.555197
 C     1.214230    -2.028348     3.514274
 H     0.811893    -1.874940     4.514433
 C     1.693047    -3.276847     3.138226
 H     1.683257    -4.095845     3.861318
 C     4.377141    -0.675439    -0.574916
 C     4.957299    -0.727677     0.692288
 H     4.443208    -0.278986     1.541923
 C     5.026561    -1.213096    -1.700457
 C     4.366149    -1.126834    -3.040934
 H     3.359387    -1.571915    -3.015042
 H     4.219485    -0.078340    -3.344890
 H     4.962872    -1.633042    -3.812030
 C     6.195024    -1.351088     0.852136
 H     6.646420    -1.394727     1.846087
 C     6.266386    -1.823918    -1.508213
 H     6.780865    -2.249955    -2.374259
 C     6.851951    -1.903065    -0.243693
 H     7.822794    -2.387869    -0.119376
 C     2.971665     2.600554     0.923985
 C     3.944896     2.874270    -0.036645
 H     4.460407     2.046140    -0.523040
 C     2.295391     3.634104     1.590533
 C     1.258058     3.321491     2.621727
 H     0.885970     4.241419     3.094184
 H     0.413671     2.785848     2.160870
 H     1.663441     2.655200     3.396797
 C     4.242483     4.193907    -0.367371
 H     4.999931     4.403103    -1.126143
 C     2.618631     4.949167     1.243292
 H     2.098475     5.766618     1.750414
 C     3.574589     5.236158     0.270080
 H     3.799856     6.274180     0.015369
