  80
scf done:    -2000.864179
 C     0.700760    -3.633277     1.126303
 H     1.315639    -4.247705     0.460638
 H     1.156228    -3.449977     2.103866
 C    -0.716210    -3.691646     1.009922
 H    -1.167211    -4.345094     0.256219
 H    -1.332895    -3.552243     1.902160
 H    -0.173164    -1.335492     1.730813
Rh    -0.007642    -1.821521     0.219437
 C     1.412847     1.222577     1.222332
 C     3.326606    -0.869972     0.904642
 C     2.191360     0.397436    -1.445387
 C    -1.468061     0.790051    -1.550774
 C    -3.402045    -1.128721    -0.706763
 C    -2.247881     0.683376     1.240914
 P    -1.790747    -0.391142    -0.181295
 P     1.722404    -0.277858     0.205876
 C     0.217917    -2.457077    -1.558918
 O     0.377692    -2.837973    -2.632310
 C     1.336594     2.512523     0.688576
 H     1.522367     2.687089    -0.370991
 C     1.147084     1.047288     2.588487
 H     1.165685     0.037129     3.007659
 C     0.992511     3.591055     1.504951
 H     0.931342     4.594295     1.075316
 C     0.803807     2.114888     3.419029
 C     0.474172     1.892985     4.866510
 H     0.805436     0.902561     5.208123
 H     0.943937     2.653315     5.508624
 H    -0.614215     1.954371     5.032958
 C     0.726652     3.396986     2.855762
 H     0.453545     4.248117     3.485905
 H     4.040963    -0.030898     0.954018
 H     3.106311    -1.167754     1.943125
 C     3.903320    -2.051382     0.136839
 H     4.148057    -1.740951    -0.893754
 H     3.121140    -2.821708     0.042882
 C     5.140769    -2.637630     0.798014
 H     5.944444    -1.888931     0.887141
 H     4.912917    -2.999902     1.813268
 H     5.538804    -3.487650     0.223111
 H     2.209264    -0.472359    -2.122307
 H     1.322730     0.990559    -1.779124
 C     3.485785     1.192605    -1.572916
 H     4.346627     0.519161    -1.428559
 H     3.558749     1.941312    -0.767211
 C     3.598010     1.882843    -2.924365
 H     3.550221     1.153715    -3.748806
 H     2.770044     2.595007    -3.074763
 H     4.543556     2.437977    -3.020847
 C    -1.351421     0.292608    -2.856500
 H    -1.537526    -0.763820    -3.063379
 C    -1.193948     2.143759    -1.325732
 H    -1.268830     2.554514    -0.317896
 C    -0.965344     1.132141    -3.896432
 H    -0.876517     0.732597    -4.909577
 C    -0.788659     2.997330    -2.358863
 C    -0.446780     4.431661    -2.074242
 H    -0.886174     4.769224    -1.124930
 H     0.645631     4.569805    -1.999706
 H    -0.801210     5.098795    -2.873897
 C    -0.677922     2.473974    -3.651045
 H    -0.365512     3.123678    -4.473341
 H    -4.107251    -0.321004    -0.966432
 H    -3.194484    -1.682721    -1.637122
 C    -3.991419    -2.071596     0.332800
 H    -4.212831    -1.511805     1.258069
 H    -3.225274    -2.814148     0.605973
 C    -5.252820    -2.768568    -0.152406
 H    -6.040717    -2.043148    -0.412057
 H    -5.051546    -3.372327    -1.051838
 H    -5.660206    -3.442916     0.616218
 H    -2.330715    -0.004601     2.097856
 H    -1.348251     1.283481     1.457527
 C    -3.487347     1.560202     1.123783
 H    -4.387767     0.924563     1.088883
 H    -3.475471     2.112702     0.169705
 C    -3.598562     2.541586     2.281660
 H    -3.636139     2.013875     3.248352
 H    -2.726981     3.215719     2.312127
 H    -4.503887     3.162787     2.203983
