  56
scf done:    -1686.612844
 C     3.963775     0.984428     0.673393
 H     4.668141     0.917084    -0.161612
 H     3.843755     1.995743     1.072619
 C     3.791312    -0.134809     1.533935
 H     4.364118    -1.049279     1.349604
 H     3.542764     0.029000     2.586646
 H     1.533926     1.039412     1.409251
Rh     2.068820     0.057968     0.261041
 C    -0.926751     1.680528    -0.571434
 C     1.402191     3.245685    -1.016103
 C     0.759330     1.173536    -2.847633
 C    -1.011064    -1.675442     0.078140
 C     1.068579    -3.132789     1.338740
 C    -0.177802    -1.011461     2.758378
 P     0.490102    -1.404298     1.101290
 P     0.837499     1.498851    -1.046052
 C     2.716567    -1.066299    -1.125601
 O     3.080284    -1.738731    -1.985300
 C    -1.986879     1.457093    -1.452333
 H    -1.802761     1.164011    -2.486594
 C    -1.213467     2.025159     0.757283
 H    -0.383735     2.168585     1.456319
 C    -3.302401     1.591597    -1.007566
 H    -4.126808     1.406592    -1.700581
 C    -2.523480     2.168104     1.215271
 C    -2.810286     2.525908     2.645192
 H    -1.883739     2.697566     3.210771
 H    -3.423114     3.438393     2.715317
 H    -3.370473     1.723012     3.151604
 C    -3.570218     1.951070     0.307902
 H    -4.605919     2.060530     0.642874
 H     1.385174     3.603110     0.022702
 H     2.443162     3.280817    -1.369360
 H     0.767933     3.893617    -1.640062
 H     0.191520     1.942011    -3.393805
 H     1.791396     1.148852    -3.226007
 H     0.309702     0.186158    -3.023706
 C    -0.823158    -2.013910    -1.270718
 H     0.189426    -2.111159    -1.671698
 C    -2.311770    -1.532112     0.561185
 H    -2.481352    -1.252551     1.603483
 C    -1.919295    -2.217658    -2.099537
 H    -1.766702    -2.488409    -3.147418
 C    -3.427923    -1.723898    -0.265498
 C    -4.811696    -1.555723     0.289247
 H    -5.010883    -2.283682     1.091870
 H    -4.939090    -0.550917     0.721550
 H    -5.578301    -1.692327    -0.486305
 C    -3.214617    -2.070045    -1.600770
 H    -4.072970    -2.222317    -2.260853
 H     1.391946    -3.537479     0.369189
 H     1.940988    -3.117335     2.008352
 H     0.280715    -3.777092     1.757864
 H    -0.851263    -1.793558     3.140652
 H     0.679131    -0.900488     3.437524
 H    -0.705553    -0.048662     2.717954
