 100
scf done:    -2910.902138
 C     1.216882    -3.491237     0.705078
 H     2.020022    -3.821273     0.040060
 H     1.519377    -3.374921     1.749082
 C    -0.132911    -3.775954     0.396724
 H    -0.379494    -4.339775    -0.507670
 H    -0.867953    -3.859759     1.201281
 H    -0.156491    -1.463778     1.479254
Rh     0.263190    -1.687483    -0.036333
 C     1.264825     1.113714     1.879802
 O     3.226330    -0.179472     0.676183
 O     1.600185     1.177252    -0.817856
 C    -2.591200    -0.919909    -2.029609
 O    -3.011162    -1.241268     0.524769
 O    -1.732803     0.901578    -0.175346
 P    -1.740029    -0.745359    -0.426200
 P     1.591753     0.068302     0.422848
 C     0.764226    -2.032552    -1.863398
 O     1.038435    -2.247296    -2.953466
 C     0.535927     2.293335     1.689957
 H     0.220894     2.573100     0.686095
 C     1.624676     0.707124     3.181793
 C     2.328139    -0.588026     3.463663
 H     3.397513    -0.519490     3.216289
 H     1.908966    -1.407696     2.860868
 H     2.233768    -0.854899     4.525324
 C     0.199548     3.108732     2.765025
 H    -0.368671     4.025541     2.594152
 C     1.292657     1.554156     4.245248
 H     1.578193     1.257653     5.258269
 C     0.597476     2.744251     4.048366
 H     0.351650     3.378386     4.903730
 C     3.906738    -1.132591    -0.037486
 C     3.890239    -1.129003    -1.429785
 H     3.330636    -0.351333    -1.954068
 C     4.622738    -2.101193     0.665125
 H     4.615556    -2.087237     1.755769
 C     4.575271    -2.113887    -2.151670
 C     4.516371    -2.117781    -3.650905
 H     3.485058    -2.291311    -3.996908
 H     4.838565    -1.149433    -4.064427
 H     5.156855    -2.901600    -4.078215
 C     5.317201    -3.072135    -0.048187
 H     5.880575    -3.837560     0.490900
 C     5.289099    -3.085051    -1.443134
 H     5.831228    -3.859897    -1.990961
 C     2.231734     2.389095    -0.918376
 C     3.313539     2.763977    -0.124889
 H     3.703819     2.069912     0.619613
 C     1.727613     3.257880    -1.890444
 H     0.885831     2.933357    -2.503973
 C     3.897586     4.027301    -0.281825
 C     5.050324     4.422987     0.594655
 H     4.748794     4.445618     1.654073
 H     5.878707     3.702240     0.510803
 H     5.436096     5.417397     0.330790
 C     2.312055     4.508687    -2.050195
 H     1.922565     5.192247    -2.808511
 C     3.387070     4.895947    -1.250080
 H     3.837062     5.883208    -1.380450
 C    -3.688821    -1.785342    -2.133793
 H    -4.074955    -2.261505    -1.231873
 C    -2.069439    -0.295963    -3.182111
 C    -0.922711     0.671713    -3.142566
 H    -0.223046     0.489383    -2.316299
 H    -1.306195     1.697359    -3.014114
 H    -0.357305     0.641202    -4.084618
 C    -4.286212    -2.032591    -3.364540
 H    -5.143273    -2.706797    -3.429260
 C    -2.686900    -0.565386    -4.409405
 H    -2.291115    -0.087101    -5.309486
 C    -3.780580    -1.418772    -4.508412
 H    -4.236537    -1.608169    -5.483215
 C    -2.897968    -1.546770     1.854857
 C    -2.402866    -0.615705     2.768672
 H    -2.065058     0.359839     2.411532
 C    -3.332511    -2.801232     2.273886
 H    -3.709245    -3.509633     1.534168
 C    -2.339290    -0.932102     4.128715
 C    -1.795548     0.053739     5.120107
 H    -1.702003     1.056303     4.682718
 H    -2.436413     0.117271     6.012660
 H    -0.790605    -0.246760     5.458001
 C    -3.272148    -3.117318     3.628961
 H    -3.612578    -4.097993     3.970039
 C    -2.780794    -2.193834     4.547579
 H    -2.740507    -2.452176     5.609093
 C    -2.704710     1.811157    -0.493026
 C    -4.064599     1.510935    -0.457613
 H    -4.386492     0.510931    -0.166005
 C    -2.269579     3.093563    -0.841954
 H    -1.199343     3.306356    -0.869301
 C    -5.012962     2.486592    -0.789677
 C    -6.472878     2.137771    -0.767927
 H    -6.696137     1.339593    -1.493765
 H    -6.778458     1.766965     0.223059
 H    -7.099827     3.005789    -1.014540
 C    -3.211163     4.065541    -1.158764
 H    -2.877168     5.069602    -1.431384
 C    -4.573637     3.766279    -1.138675
 H    -5.305202     4.536228    -1.396154
