 104
scf done:    -3037.443297
 C    -1.523891     2.328449     3.536511
 H    -1.855095     3.346655     3.310289
 H    -2.312417     1.681023     3.931999
 C    -0.175253     2.098421     3.928739
 H     0.515044     2.944955     4.004654
 H     0.053438     1.278031     4.614728
 H    -0.898828     0.043849     2.644685
Rh    -0.462824     1.391815     1.918732
 O    -2.046702    -1.036439     0.427759
 C    -3.757326     1.176954     0.854190
 C    -1.857254     0.995666    -1.373810
 O     1.513575     0.316620    -0.470594
 C     2.946489     0.683518     1.950278
 C     1.219086    -1.666887     1.434103
 P     1.318976     0.175217     1.201798
 P    -2.030479     0.647111     0.438445
 C     0.175470     3.057953     1.224482
 O     0.658105     4.056872     0.929477
 C    -2.832491    -1.891345    -0.296975
 C    -2.616003    -2.116568    -1.659008
 H    -1.823577    -1.582529    -2.182368
 C    -3.806533    -2.630386     0.377307
 H    -3.939344    -2.466795     1.446678
 C    -3.406504    -3.031226    -2.352641
 H    -3.257875    -3.214502    -3.418201
 C    -4.596999    -3.544026    -0.308385
 H    -5.374747    -4.116615     0.199679
 C    -4.396006    -3.725605    -1.671748
 F    -5.162337    -4.593188    -2.334313
 H    -3.754382     1.231214     1.951625
 H    -3.771582     2.224760     0.505706
 C    -4.952739     0.403856     0.379943
 C    -5.314679     0.310641    -0.969496
 H    -4.739027     0.834820    -1.734001
 C    -5.746749    -0.258323     1.323304
 H    -5.479859    -0.179592     2.381944
 C    -6.413496    -0.453127    -1.352243
 H    -6.679052    -0.525544    -2.409536
 C    -6.856404    -1.025403     0.958993
 C    -7.650387    -1.766816     1.994703
 H    -7.602730    -1.270172     2.974459
 H    -8.707552    -1.857664     1.706014
 H    -7.260700    -2.790708     2.127740
 C    -7.177962    -1.120117    -0.398631
 H    -8.038032    -1.718360    -0.711263
 H    -0.935047     0.460190    -1.646001
 H    -2.696516     0.535358    -1.913769
 C    -1.717295     2.449234    -1.708814
 C    -2.832152     3.287788    -1.837602
 H    -3.841336     2.885607    -1.719090
 C    -0.444375     2.993317    -1.901228
 H     0.422890     2.334582    -1.810148
 C    -2.662022     4.636111    -2.139293
 H    -3.536701     5.282574    -2.244273
 C    -0.255324     4.345578    -2.202574
 C     1.128177     4.905071    -2.354702
 H     1.805417     4.182154    -2.832738
 H     1.129221     5.828563    -2.951021
 H     1.549051     5.147089    -1.364460
 C    -1.384559     5.162492    -2.317350
 H    -1.261124     6.222408    -2.555625
 C     2.645281     0.592143    -1.175596
 C     3.240764    -0.407223    -1.948783
 H     2.804258    -1.405305    -1.958239
 C     3.173267     1.886987    -1.179358
 H     2.678333     2.673146    -0.605720
 C     4.389979    -0.126605    -2.679574
 H     4.881031    -0.896851    -3.277088
 C     4.329155     2.170418    -1.905666
 H     4.768202     3.169595    -1.909117
 C     4.931389     1.153353    -2.635321
 F     6.058040     1.406585    -3.304277
 H     3.188909     1.654427     1.491561
 H     2.628672     0.914269     2.979230
 C     4.130872    -0.234820     1.966329
 C     4.313017    -1.120255     3.035236
 H     3.599631    -1.124553     3.864141
 C     5.085148    -0.222113     0.941691
 H     4.973217     0.481726     0.116458
 C     5.404517    -1.987436     3.055519
 H     5.535736    -2.675107     3.894467
 C     6.183751    -1.083534     0.944106
 C     7.188051    -1.050909    -0.171233
 H     7.262199    -2.033049    -0.664379
 H     6.917465    -0.310153    -0.935905
 H     8.193123    -0.802065     0.204640
 C     6.328656    -1.976664     2.014786
 H     7.182584    -2.659672     2.037603
 H     1.729987    -1.879744     2.385958
 H     0.145396    -1.845293     1.582356
 C     1.734630    -2.524028     0.317937
 C     0.878879    -2.840979    -0.742834
 H    -0.148377    -2.475490    -0.725009
 C     3.043852    -3.016694     0.295021
 H     3.719112    -2.784483     1.119974
 C     1.330434    -3.622501    -1.803052
 H     0.649784    -3.869917    -2.621643
 C     3.515510    -3.796898    -0.765352
 C     4.934073    -4.288307    -0.784879
 H     5.432024    -4.106023     0.177211
 H     4.984835    -5.365804    -1.004764
 H     5.517725    -3.771283    -1.564492
 C     2.641639    -4.093654    -1.819076
 H     2.991006    -4.706330    -2.655076
