  98
scf done:    -2609.172445
 C    -2.012901     0.820711    -2.830667
 H    -2.698844     0.065774    -3.225417
 H    -2.500193     1.740225    -2.494910
 C    -0.669460     0.854584    -3.265061
 H    -0.319428     0.129773    -4.005886
 H    -0.130346     1.804877    -3.270860
 H    -0.576342     1.509988    -0.794218
Rh    -0.765228     0.005597    -1.258727
 O    -2.174547    -0.635784     1.844597
 O    -3.234787     1.254832     0.717290
 O    -3.639444    -1.010119    -0.223394
 O     2.014016    -1.535533    -0.144902
 O     2.425970     0.927166    -0.725913
 O     1.183427     0.337663     1.328674
 P     1.225889    -0.074474    -0.238180
 P    -2.409097    -0.082607     0.284432
 C    -0.910488    -1.804961    -1.886766
 O    -1.006406    -2.878354    -2.269802
 C    -1.327998    -1.655938     2.174795
 C    -1.246944    -2.817471     1.409522
 H    -1.885713    -2.930422     0.532308
 C    -0.563119    -1.492193     3.340303
 C    -0.696826    -0.237214     4.145187
 H    -0.450706     0.645023     3.533651
 H    -1.730567    -0.101066     4.500226
 H    -0.033642    -0.254428     5.021153
 C    -0.364397    -3.829333     1.784661
 H    -0.301777    -4.738613     1.182637
 C     0.307795    -2.523755     3.694382
 H     0.914264    -2.412101     4.597735
 C     0.421573    -3.681078     2.923083
 H     1.117091    -4.469049     3.219620
 C    -2.894230     2.106657     1.807527
 H    -3.728826     2.821833     1.875993
 H    -2.876469     1.511870     2.733448
 C    -1.579011     2.834044     1.619308
 H    -1.371088     3.393025     2.549030
 H    -0.768498     2.090702     1.525592
 C    -1.553969     3.777948     0.426028
 H    -2.297340     4.580335     0.578321
 H    -1.880805     3.221755    -0.467763
 C    -0.180065     4.375656     0.173923
 H     0.184002     4.943797     1.045438
 H     0.556186     3.582964    -0.033995
 H    -0.187468     5.058490    -0.689384
 C    -4.868702    -1.133898     0.493117
 H    -5.130311    -2.203815     0.458553
 H    -4.717596    -0.858738     1.548925
 C    -5.953577    -0.290545    -0.142588
 H    -6.877058    -0.423390     0.449073
 H    -5.666782     0.769712    -0.048644
 C    -6.215445    -0.629550    -1.603125
 H    -6.514989    -1.689858    -1.683724
 H    -5.267970    -0.540734    -2.159537
 C    -7.274271     0.256037    -2.238648
 H    -8.240903     0.167826    -1.716315
 H    -6.977984     1.316807    -2.202915
 H    -7.442198    -0.006043    -3.294240
 C     3.255804    -1.941692    -0.548026
 C     4.407382    -1.176672    -0.344123
 H     4.328230    -0.192614     0.114829
 C     3.332988    -3.219203    -1.132140
 C     2.094152    -4.036259    -1.325264
 H     2.344628    -5.075787    -1.577025
 H     1.470863    -4.025064    -0.419763
 H     1.469531    -3.633140    -2.137167
 C     5.648470    -1.669802    -0.743755
 H     6.542378    -1.062040    -0.584684
 C     4.592586    -3.689197    -1.511259
 H     4.663726    -4.683668    -1.960495
 C     5.745996    -2.927758    -1.330168
 H     6.716711    -3.320782    -1.640113
 C     2.669576     1.199455    -2.102086
 H     3.682474     0.828284    -2.333049
 H     1.949841     0.640966    -2.722929
 C     2.554846     2.685240    -2.361111
 H     2.743514     2.861119    -3.434817
 H     1.511971     2.992399    -2.171578
 C     3.498856     3.529358    -1.517007
 H     4.540668     3.224569    -1.722065
 H     3.320027     3.297088    -0.454330
 C     3.339593     5.022470    -1.749678
 H     3.536373     5.290394    -2.800346
 H     2.316090     5.353049    -1.511479
 H     4.030781     5.606002    -1.122627
 C     2.289242     0.223111     2.222857
 H     1.852021    -0.043442     3.195971
 H     2.926916    -0.620377     1.917681
 C     3.079354     1.511352     2.328606
 H     3.912683     1.334892     3.031907
 H     3.533700     1.736731     1.350360
 C     2.246215     2.697809     2.790945
 H     1.834951     2.485329     3.794120
 H     1.376534     2.795279     2.123499
 C     3.019972     4.005056     2.812666
 H     3.893062     3.949278     3.482898
 H     3.392673     4.260764     1.807584
 H     2.391505     4.841865     3.153639
