 102
scf done:    -3061.304412
 C     1.605786    -3.975052     0.535970
 H     2.191918    -4.432582    -0.265388
 H     2.154510    -3.821280     1.467946
 C     0.204334    -4.093183     0.549493
 H    -0.308755    -4.648392    -0.240732
 H    -0.343692    -4.034284     1.492826
 H     0.735898    -1.744307     1.432815
Rh     0.737459    -2.084120    -0.115580
 O     2.672753     0.509680     0.951693
 O     3.941189    -1.472995     0.136836
 O     2.909688     0.067669    -1.529099
 O    -1.681533    -0.217788    -1.456284
 O    -2.569465    -1.994903     0.134244
 O    -1.457105     0.105152     1.080008
 P    -1.242448    -1.029530    -0.081193
 P     2.507702    -0.723107    -0.127462
 C     0.784743    -2.540718    -1.990119
 O     0.826483    -2.819685    -3.097105
 C     1.679274     1.075535     1.713195
 C     1.337634     0.506517     2.939180
 H     1.836389    -0.408803     3.261836
 C     1.065863     2.249119     1.288279
 H     1.367858     2.695571     0.339281
 C     0.368152     1.114236     3.728750
 H     0.099350     0.661473     4.687189
 C     0.092787     2.841400     2.090397
 H    -0.395556     3.756836     1.745806
 C    -0.277823     2.287779     3.319102
 C    -1.342209     2.909382     4.173717
 H    -0.963929     3.136505     5.183010
 H    -2.200037     2.227758     4.288106
 H    -1.716845     3.843502     3.733060
 C     5.158008    -0.820768     0.156001
 C     5.806981    -0.559098    -1.049350
 H     5.319381    -0.849273    -1.980297
 C     5.728798    -0.482856     1.391134
 C     5.027054    -0.781364     2.680503
 H     4.310693     0.017601     2.927237
 H     4.457120    -1.718926     2.613392
 H     5.745256    -0.861192     3.508294
 C     7.045646     0.075636    -1.042458
 H     7.551770     0.287198    -1.986980
 C     6.978325     0.147054     1.366709
 H     7.446914     0.415291     2.317662
 C     7.631778     0.433322     0.170168
 H     8.605104     0.928915     0.186339
 C     2.774925     1.408239    -1.788107
 C     3.618579     2.332577    -1.172628
 H     4.376557     1.975393    -0.474734
 C     1.797267     1.802958    -2.714286
 C     0.946796     0.780639    -3.401981
 H     0.278403     1.254742    -4.132845
 H     1.570290     0.038530    -3.923586
 H     0.322600     0.224559    -2.687650
 C     3.466632     3.689754    -1.446594
 H     4.120805     4.415375    -0.958104
 C     1.666939     3.172719    -2.967388
 H     0.903452     3.501660    -3.677479
 C     2.481672     4.112679    -2.337392
 H     2.354215     5.175950    -2.553239
 C    -2.249280     1.029738    -1.561409
 C    -1.473776     2.161573    -1.321902
 H    -0.432831     2.046798    -1.022166
 C    -3.581978     1.156877    -1.944992
 H    -4.178821     0.263215    -2.130711
 C    -2.044234     3.424774    -1.445538
 H    -1.426734     4.305598    -1.248148
 C    -4.136759     2.428484    -2.063710
 H    -5.187176     2.521200    -2.352849
 C    -3.385993     3.584250    -1.813799
 C    -3.990457     4.949460    -1.970303
 H    -3.892519     5.308948    -3.008462
 H    -3.495334     5.686754    -1.321953
 H    -5.063113     4.945877    -1.727661
 C    -3.790525    -1.916863    -0.497778
 C    -4.876328    -1.369525     0.182110
 H    -4.735148    -0.990144     1.194106
 C    -3.921419    -2.446617    -1.791125
 C    -2.750147    -3.056072    -2.496166
 H    -2.096167    -2.275143    -2.914793
 H    -2.137100    -3.650043    -1.802459
 H    -3.077990    -3.702356    -3.321420
 C    -6.119024    -1.304900    -0.442096
 H    -6.966609    -0.867330     0.089929
 C    -5.182127    -2.366649    -2.393020
 H    -5.305914    -2.768939    -3.402132
 C    -6.271530    -1.795498    -1.737422
 H    -7.242403    -1.746182    -2.235576
 C    -2.550548     0.358073     1.872371
 C    -3.345569     1.468060     1.595990
 H    -3.100724     2.095813     0.739950
 C    -2.799451    -0.471845     2.976676
 C    -1.930975    -1.655821     3.264969
 H    -2.171423    -2.488103     2.584325
 H    -0.870143    -1.413672     3.108227
 H    -2.071129    -2.004453     4.297187
 C    -4.437901     1.753746     2.410009
 H    -5.064046     2.620259     2.186383
 C    -3.903354    -0.157180     3.778280
 H    -4.119246    -0.792669     4.641402
 C    -4.724137     0.935088     3.501119
 H    -5.580218     1.150709     4.144269
