  92
scf done:    -3600.871512
 C    -2.127774     0.297436    -3.220633
 H    -2.563760    -0.565098    -3.733729
 H    -2.858255     1.032942    -2.873034
 C    -0.813914     0.707918    -3.544104
 H    -0.251496     0.151995    -4.300589
 H    -0.531114     1.760017    -3.455898
 H    -1.125860     1.211859    -1.085780
Rh    -0.797408    -0.252000    -1.599651
 O    -3.505134     0.221905     0.407344
 C    -3.331082    -2.323962    -0.240165
 C    -1.634949    -1.197083     1.712858
 O     1.793235    -1.116489     0.266285
 C     2.623037     0.726812    -1.550463
 C     1.107573     1.490252     0.740880
 P     1.169217     0.221573    -0.569204
 P    -2.271835    -0.862620     0.034235
 C    -0.280567    -1.985981    -2.240399
 O     0.095420    -3.007111    -2.601392
 C    -3.467277     1.564913     0.202386
 C    -2.474030     2.374112     0.759671
 H    -1.666659     1.931717     1.345525
 C    -4.489003     2.138250    -0.557540
 H    -5.250947     1.485267    -0.986793
 C    -2.509044     3.751147     0.559402
 H    -1.731607     4.385657     0.985379
 C    -4.527513     3.514222    -0.757031
 H    -5.322208     3.970100    -1.349643
 C    -3.533168     4.315601    -0.196802
Cl    -3.569245     6.032883    -0.446015
 C    -3.992121    -2.958662     0.819321
 H    -3.848816    -2.601828     1.841984
 C    -3.527053    -2.799821    -1.538568
 H    -3.020422    -2.303244    -2.368763
 C    -4.824760    -4.044415     0.577274
 H    -5.333745    -4.528805     1.415467
 C    -4.361016    -3.889687    -1.773970
 H    -4.501263    -4.248925    -2.797102
 C    -5.021322    -4.532785    -0.722152
 C    -5.893603    -5.728266    -0.967207
 H    -6.205057    -5.792903    -2.019215
 H    -5.356977    -6.660205    -0.722941
 H    -6.797524    -5.701626    -0.340602
 C    -2.104662    -0.533808     2.847608
 H    -2.921709     0.184416     2.753825
 C    -0.597108    -2.128075     1.849271
 H    -0.201132    -2.635204     0.966555
 C    -1.526581    -0.779594     4.093500
 H    -1.896412    -0.242804     4.971702
 C    -0.034184    -2.374509     3.094407
 H     0.785187    -3.093803     3.179002
 C    -0.481272    -1.696261     4.239350
 C     0.149379    -1.959370     5.575217
 H     1.241945    -1.827357     5.533383
 H    -0.245789    -1.286457     6.348927
 H    -0.035735    -2.994909     5.903395
 C     3.115542    -1.303667     0.540739
 C     3.671435    -0.856337     1.740730
 H     3.042738    -0.336091     2.463500
 C     3.914435    -1.974063    -0.388814
 H     3.462767    -2.319778    -1.320194
 C     5.023969    -1.061733     2.001776
 H     5.469334    -0.712507     2.934734
 C     5.265405    -2.178049    -0.134775
 H     5.897601    -2.691747    -0.860548
 C     5.816575    -1.713957     1.059528
Cl     7.504533    -1.954909     1.376486
 C     2.678663     0.350701    -2.894600
 H     1.807453    -0.132531    -3.342917
 C     3.738945     1.356301    -0.978859
 H     3.720093     1.654327     0.071571
 C     3.826057     0.584840    -3.648707
 H     3.852576     0.280296    -4.698454
 C     4.879097     1.588194    -1.736648
 H     5.743747     2.069697    -1.271512
 C     4.945477     1.203945    -3.083795
 C     6.180947     1.469335    -3.891451
 H     7.085244     1.147098    -3.352962
 H     6.152498     0.948133    -4.858321
 H     6.293201     2.546879    -4.095062
 C     0.845006     1.139898     2.067831
 H     0.774349     0.088001     2.349560
 C     1.161544     2.847785     0.399809
 H     1.350821     3.143752    -0.635376
 C     0.646983     2.126914     3.031596
 H     0.434002     1.827864     4.061485
 C     0.970221     3.825633     1.369140
 H     1.023435     4.880201     1.083517
 C     0.701020     3.485072     2.702347
 C     0.440248     4.547648     3.728622
 H     1.110193     5.410126     3.596401
 H    -0.593360     4.924334     3.646733
 H     0.569890     4.163773     4.750241
