  86
scf done:    -3000.127507
 C    -2.033201     1.680543    -2.661724
 H    -2.548310     1.063345    -3.403779
 H    -2.694806     2.270472    -2.023271
 C    -0.719055     2.137077    -2.914340
 H    -0.231676     1.869927    -3.857710
 H    -0.376690     3.079788    -2.479614
 H    -0.838842     1.731293    -0.412609
Rh    -0.655550     0.536812    -1.445314
 O    -2.685881     0.278867     1.281394
 C    -3.659285    -1.199584    -0.744249
 C    -1.495185    -2.006987     0.895679
 O     1.879584    -1.215073    -0.347073
 C     2.800189     1.276760    -0.996229
 C     1.343820     0.806106     1.404055
 P     1.336254     0.381648    -0.373306
 P    -2.093045    -0.555633    -0.042182
 C    -0.250984    -0.800421    -2.757302
 O     0.070911    -1.569921    -3.544839
 C    -2.860495     1.636198     1.281647
 C    -3.846599     2.239328     0.503177
 H    -4.482767     1.622710    -0.135158
 C    -2.039765     2.410495     2.096777
 H    -1.264894     1.916706     2.684007
 C    -3.998230     3.623018     0.542676
 H    -4.768248     4.091610    -0.076579
 C    -2.207042     3.791239     2.128623
 H    -1.551059     4.391734     2.765219
 C    -3.185413     4.424960     1.353053
 C    -3.376968     5.913007     1.409851
 H    -4.117077     6.189297     2.179726
 H    -3.741016     6.309720     0.450901
 H    -2.439205     6.430640     1.658881
 C    -3.732990    -1.527851    -2.100546
 H    -2.864092    -1.363045    -2.741264
 C    -4.786468    -1.385221     0.066984
 H    -4.739763    -1.116955     1.124848
 C    -4.903526    -2.051174    -2.644008
 H    -4.978249    -2.314975    -3.700361
 C    -5.966229    -1.892503    -0.465747
 H    -6.857624    -2.038111     0.147210
 C    -6.005999    -2.224095    -1.816749
 F    -7.132290    -2.711710    -2.329389
 C    -1.834472    -2.215971     2.238166
 H    -2.492039    -1.506879     2.743163
 C    -0.624728    -2.900288     0.262322
 H    -0.320828    -2.726917    -0.771376
 C    -1.306788    -3.296074     2.939802
 H    -1.550812    -3.472217     3.989200
 C    -0.096314    -3.987673     0.951216
 H     0.596464    -4.683428     0.475255
 C    -0.442720    -4.167739     2.285185
 F     0.070765    -5.195445     2.956696
 C     3.186929    -1.594881    -0.203893
 C     3.715519    -1.892503     1.050734
 H     3.084797    -1.809727     1.936075
 C     3.990409    -1.709617    -1.340182
 H     3.560717    -1.475100    -2.315959
 C     5.048474    -2.286481     1.160969
 H     5.454514    -2.515566     2.150143
 C     5.317438    -2.101338    -1.213851
 H     5.938284    -2.178433    -2.110832
 C     5.875062    -2.393779     0.038430
 C     7.305885    -2.831860     0.159216
 H     7.650117    -2.801649     1.202591
 H     7.973772    -2.192718    -0.438307
 H     7.437412    -3.864756    -0.203378
 C     3.976884     1.418513    -0.244296
 H     4.019785     1.050808     0.782891
 C     2.772891     1.746424    -2.313420
 H     1.849108     1.638733    -2.886904
 C     5.103703     2.012416    -0.798985
 H     6.029929     2.124761    -0.232997
 C     3.894605     2.343204    -2.881990
 H     3.890175     2.718055    -3.906916
 C     5.046220     2.464534    -2.113986
 F     6.123542     3.031586    -2.647397
 C     1.566088     2.122605     1.826625
 H     1.818389     2.895856     1.096951
 C     0.993874    -0.162299     2.351732
 H     0.796503    -1.186789     2.031859
 C     1.468614     2.463437     3.172501
 H     1.646336     3.482891     3.519507
 C     0.887200     0.166564     3.700384
 H     0.614353    -0.579982     4.448272
 C     1.132399     1.476978     4.093793
 F     1.039043     1.797874     5.381571
