 112
scf done:    -3638.722008
 C     1.369497    -0.142497     3.359144
 H     1.853866    -1.055805     3.719428
 H     2.050446     0.713080     3.303281
 C    -0.015527     0.068016     3.588069
 H    -0.593501    -0.682575     4.134573
 H    -0.405945     1.085292     3.680280
 H     0.386188     1.103724     1.354834
Rh     0.283525    -0.460479     1.530410
 O     2.198451     0.901089    -0.871972
 C     3.642943    -0.900361     0.742212
 C     2.145164    -1.592115    -1.521220
 O    -2.148986    -1.254246    -0.655377
 C    -3.228299     0.331378     1.194151
 C    -1.323134     1.425533    -0.768451
 P    -1.615055    -0.009198     0.347873
 P     1.996144    -0.525954    -0.023360
 C     0.002314    -2.328829     1.828127
 O    -0.237677    -3.430309     2.051271
 C     2.218636     2.191457    -0.483041
 C     2.222762     2.634374     0.845267
 H     2.226431     1.912189     1.657710
 C     2.293242     3.133129    -1.513548
 H     2.315263     2.770303    -2.541406
 C     2.246897     3.997976     1.128218
 H     2.250099     4.354927     2.160167
 C     2.329438     4.495740    -1.234910
 H     2.375525     5.237615    -2.034282
 C     2.287837     4.916185     0.087282
 F     2.298679     6.227010     0.364745
 C     3.765893    -2.208784     1.248056
 O     2.716764    -3.015039     0.997013
 C     2.760058    -4.365200     1.360421
 H     1.814062    -4.803173     1.021377
 H     3.603201    -4.885911     0.874732
 H     2.836440    -4.491967     2.454000
 C     4.729885    -0.026568     0.918093
 O     4.631882     1.192986     0.361510
 C     5.573303     2.182856     0.654250
 H     5.205823     3.103153     0.181279
 H     6.569844     1.938187     0.244776
 H     5.666798     2.352904     1.740964
 C     5.869322    -0.432683     1.628234
 H     6.704327     0.252737     1.768334
 C     4.901943    -2.626818     1.948200
 H     4.976081    -3.640673     2.339312
 C     5.941179    -1.723059     2.138297
 H     6.832348    -2.034751     2.688205
 C     3.208350    -1.374244    -2.426915
 O     4.112462    -0.450257    -2.076241
 C     5.188867    -0.153413    -2.912207
 H     5.762884     0.629560    -2.400806
 H     5.840804    -1.029733    -3.075265
 H     4.855484     0.230727    -3.892506
 C     1.229581    -2.624333    -1.810124
 O     0.285692    -2.883977    -0.902229
 C    -0.746311    -3.781865    -1.203100
 H    -1.424083    -3.768763    -0.343340
 H    -0.360712    -4.806435    -1.349079
 H    -1.307688    -3.465570    -2.096768
 C     1.330981    -3.357632    -3.004790
 H     0.613718    -4.144547    -3.231155
 C     3.306162    -2.101905    -3.620941
 H     4.120068    -1.917464    -4.320780
 C     2.359594    -3.081542    -3.895297
 H     2.433422    -3.654321    -4.823199
 C    -3.424558    -1.346198    -1.123429
 C    -3.831307    -0.657176    -2.268160
 H    -3.113906    -0.019757    -2.781986
 C    -4.328294    -2.174021    -0.451787
 H    -3.988483    -2.691768     0.446871
 C    -5.137995    -0.788147    -2.731715
 H    -5.479982    -0.260305    -3.624113
 C    -5.634731    -2.309853    -0.911488
 H    -6.358667    -2.943954    -0.396633
 C    -6.024853    -1.609420    -2.046325
 F    -7.279428    -1.730413    -2.490284
 C    -4.192481     1.269718     0.765943
 O    -3.969236     1.874256    -0.409177
 C    -4.872708     2.811728    -0.913979
 H    -4.443709     3.169167    -1.858792
 H    -5.860665     2.359845    -1.110484
 H    -4.998117     3.671737    -0.233083
 C    -3.551205    -0.452289     2.321823
 O    -2.745845    -1.499444     2.574970
 C    -2.934981    -2.262642     3.733376
 H    -2.137780    -3.015499     3.738788
 H    -3.912750    -2.775586     3.728674
 H    -2.857657    -1.645498     4.644725
 C    -4.690386    -0.189534     3.094283
 H    -4.910287    -0.780420     3.981836
 C    -5.339867     1.530629     1.525764
 H    -6.064602     2.274192     1.197595
 C    -5.562851     0.813138     2.693797
 H    -6.455908     1.018578     3.288984
 C    -1.359360     2.718239    -0.210784
 O    -1.645659     2.765952     1.102694
 C    -1.615815     3.990028     1.778390
 H    -1.815658     3.764954     2.833526
 H    -0.628824     4.474664     1.689963
 H    -2.393262     4.681192     1.407275
 C    -0.902204     1.298986    -2.101533
 O    -0.724078     0.050991    -2.580523
 C    -0.100437    -0.118404    -3.823431
 H     0.041331    -1.197598    -3.955095
 H     0.887788     0.370810    -3.844561
 H    -0.719267     0.269178    -4.652187
 C    -0.688686     2.438947    -2.892783
 H    -0.399560     2.337794    -3.937635
 C    -1.129897     3.857378    -0.984434
 H    -1.173560     4.852258    -0.543995
 C    -0.823045     3.701014    -2.331655
 H    -0.645567     4.585243    -2.948257
