 118
scf done:    -3518.822177
 C    -1.427029    -1.749553    -2.938916
 H    -2.004540    -2.660897    -2.754991
 H    -2.003139    -0.936135    -3.387494
 C    -0.026674    -1.818520    -3.124233
 H     0.479485    -2.787707    -3.093765
 H     0.487692    -1.062804    -3.724548
 H    -0.442965     0.332562    -1.887168
Rh    -0.432919    -1.064322    -1.147019
 O    -2.779744     1.311119    -0.503374
 C    -3.767385    -1.158843    -0.625024
 C    -2.604077    -0.103746     1.755409
 O     2.094621    -1.031984     1.036657
 C     3.129056    -0.600636    -1.376858
 C     1.536178     1.524448    -0.038850
 P     1.593308    -0.278434    -0.374155
 P    -2.284413    -0.227333    -0.066807
 C    -0.346708    -2.751890    -0.250424
 O    -0.238166    -3.758799     0.294178
 C    -2.026227     2.432660    -0.406527
 C    -1.290036     2.878394    -1.437512
 H    -1.277297     2.297426    -2.361617
 C    -2.168030     3.211840     0.828777
 H    -2.879621     2.844864     1.568994
 C    -0.424135     4.087363    -1.316841
 H    -0.564992     4.749409    -2.189996
 C    -1.494263     4.352650     1.020248
 H    -1.651930     4.936009     1.933496
 C    -0.479619     4.860719     0.044695
 C    -0.593195     6.365437    -0.134339
 H     0.170279     6.739761    -0.835524
 H    -0.452520     6.887703     0.826186
 H    -1.583443     6.640419    -0.530425
 C    -4.014890    -2.384835     0.018081
 O    -3.130158    -2.709738     0.981123
 C    -3.259946    -3.904526     1.692079
 H    -2.417399    -3.936491     2.393914
 H    -4.206663    -3.941386     2.258725
 H    -3.199532    -4.783411     1.027355
 C    -4.568895    -0.820502    -1.731310
 O    -4.234975     0.282374    -2.424717
 C    -4.999616     0.665393    -3.526659
 H    -4.544090     1.586020    -3.913754
 H    -6.047991     0.877737    -3.250280
 H    -4.991329    -0.099902    -4.323643
 C    -5.651432    -1.635432    -2.097470
 H    -6.286321    -1.364098    -2.939744
 C    -5.087609    -3.205516    -0.344545
 H    -5.276412    -4.142936     0.177159
 C    -5.905588    -2.808021    -1.396007
 H    -6.749611    -3.436723    -1.689700
 C    -3.778435     0.517249     2.231984
 O    -4.692433     0.859064     1.308910
 C    -5.879591     1.484404     1.692063
 H    -6.450855     1.650769     0.770014
 H    -6.476964     0.854373     2.374634
 H    -5.694920     2.459426     2.177459
 C    -1.685277    -0.591046     2.707521
 O    -0.668663    -1.325513     2.248702
 C     0.201656    -1.959451     3.141499
 H     0.854627    -2.589632     2.530928
 H    -0.351597    -2.584583     3.864616
 H     0.831142    -1.237281     3.685060
 C    -1.868336    -0.341176     4.077423
 H    -1.137000    -0.689779     4.804944
 C    -3.970322     0.759562     3.599360
 H    -4.869317     1.259383     3.957437
 C    -3.000230     0.340993     4.502739
 H    -3.141001     0.534815     5.569154
 C     3.352665    -1.044710     1.540017
 C     4.187047     0.075184     1.560652
 H     3.850483     1.011850     1.115839
 C     3.812779    -2.250774     2.075256
 H     3.163670    -3.126692     2.017979
 C     5.457344    -0.022038     2.121873
 H     6.101964     0.862194     2.124294
 C     5.081767    -2.327545     2.640236
 H     5.426233    -3.281368     3.050824
 C     5.930408    -1.215080     2.679427
 C     7.289118    -1.294897     3.314407
 H     7.982167    -0.561071     2.877106
 H     7.733386    -2.294178     3.193160
 H     7.239460    -1.090870     4.397731
 C     4.121925     0.315022    -1.788711
 O     4.075650     1.564180    -1.286357
 C     5.093862     2.474485    -1.570955
 H     4.852726     3.389217    -1.012735
 H     6.080911     2.103813    -1.242777
 H     5.148506     2.719236    -2.647019
 C     3.310765    -1.950480    -1.759435
 O     2.471981    -2.838588    -1.202282
 C     2.555612    -4.193336    -1.541213
 H     1.765031    -4.699597    -0.974734
 H     3.533945    -4.620850    -1.260805
 H     2.386339    -4.356164    -2.619863
 C     4.330717    -2.341443    -2.635513
 H     4.434893    -3.381525    -2.939712
 C     5.146053    -0.070745    -2.665146
 H     5.890877     0.650984    -2.996616
 C     5.228086    -1.388237    -3.094601
 H     6.026973    -1.683255    -3.779133
 C     1.433437     2.325681    -1.124902
 O     1.534715     1.744792    -2.333050
 C     1.630738     2.496375    -3.508086
 H     1.658068     1.771720    -4.331663
 H     0.764169     3.163000    -3.652748
 H     2.556013     3.097478    -3.537180
 C     1.349088     2.121324     1.294700
 O     1.403436     1.225575     2.300903
 C     1.261230     1.690717     3.608662
 H     1.352979     0.817933     4.267218
 H     0.273659     2.158814     3.765411
 H     2.051947     2.417140     3.868225
 C     1.170802     3.445736     1.481946
 H     1.062311     3.848958     2.487970
 C     1.091038     3.773211    -1.061668
 H     1.749944     4.346282    -1.731719
 C     0.997581     4.396179     0.351343
 H     1.660979     5.268885     0.480319
