  90
scf done:    -4742.040573
 C    -1.345216    -3.930925    -1.460137
 H    -0.731688    -4.444009    -2.205851
 H    -1.319418    -4.375002    -0.462499
 C    -2.475863    -3.187852    -1.856024
 H    -2.746975    -3.121276    -2.913371
 H    -3.309740    -3.054879    -1.162343
 H    -1.456616    -1.928541     0.103770
Rh    -0.868647    -1.809741    -1.361941
 O     1.228202    -1.743746     1.316205
 O     2.322547    -2.540252    -0.800460
 O     1.754329    -0.055868    -0.497956
 O    -1.484373     1.284715    -2.415064
 O    -3.395873     0.460538    -1.067581
 O    -1.207732     1.003424     0.149148
 P    -1.751462     0.229180    -1.201210
 P     1.089040    -1.558303    -0.323847
 C    -0.184399    -1.711454    -3.172148
 O     0.235399    -1.644237    -4.230881
 C     0.168988    -1.952085     2.168721
 C    -0.498737    -0.860870     2.716852
 H    -0.214326     0.148409     2.417754
 C    -0.173462    -3.271821     2.494468
 C     0.584691    -4.415511     1.895715
 H     0.560706    -4.381639     0.795781
 H     1.646804    -4.380232     2.185915
 H     0.169426    -5.378315     2.221721
 C    -1.537287    -1.073445     3.621178
 H    -2.059908    -0.218221     4.055754
 C    -1.226602    -3.456586     3.394994
 H    -1.515922    -4.476269     3.662471
 C    -1.903809    -2.374966     3.957786
 H    -2.715726    -2.551838     4.667102
 C     3.665410    -2.281783    -0.671178
 C     4.268985    -2.169537     0.581206
 H     3.668737    -2.308107     1.480721
 C     4.413088    -2.123162    -1.835822
 H     3.917354    -2.233974    -2.801998
 C     5.613816    -1.826123     0.667118
 H     6.092822    -1.695721     1.638438
 C     5.762274    -1.794212    -1.752599
 H     6.358022    -1.648475    -2.654997
 C     6.349677    -1.623525    -0.499804
Cl     8.006948    -1.134180    -0.390836
 C     2.826131     0.545138     0.114059
 C     3.859586     1.008470    -0.700047
 H     3.794733     0.848469    -1.776822
 C     2.872997     0.751793     1.493343
 H     2.063769     0.394157     2.127174
 C     4.967791     1.628380    -0.136295
 H     5.796037     1.963933    -0.761919
 C     3.980634     1.377306     2.059593
 H     4.035789     1.530594     3.138467
 C     5.029413     1.801125     1.246400
Cl     6.421339     2.546394     1.957064
 C    -1.736301     2.645511    -2.383736
 C    -3.029814     3.114256    -2.590376
 H    -3.827996     2.395036    -2.774844
 C    -0.654028     3.506847    -2.160334
 C     0.736803     2.969978    -2.020250
 H     1.413799     3.731873    -1.611619
 H     0.775338     2.083314    -1.373462
 H     1.128953     2.654445    -3.001326
 C    -3.277435     4.482722    -2.523882
 H    -4.291812     4.858939    -2.674527
 C    -0.936905     4.873991    -2.085455
 H    -0.116822     5.568226    -1.884745
 C    -2.230987     5.362474    -2.255154
 H    -2.419636     6.435719    -2.182238
 C    -4.205818    -0.413006    -0.392228
 C    -5.363074    -0.856498    -1.031131
 H    -5.578368    -0.504774    -2.041483
 C    -3.899152    -0.850001     0.896344
 H    -2.994921    -0.502686     1.397470
 C    -6.214325    -1.747227    -0.385954
 H    -7.121176    -2.104957    -0.875780
 C    -4.740737    -1.753983     1.537188
 H    -4.494343    -2.116651     2.535921
 C    -5.893845    -2.199605     0.894628
Cl    -6.940941    -3.325859     1.693224
 C    -1.396744     2.256635     0.673279
 C    -2.640999     2.884961     0.722759
 H    -3.519335     2.392140     0.308968
 C    -0.269188     2.879336     1.209454
 H     0.693846     2.368657     1.162205
 C    -2.741875     4.160594     1.268020
 H    -3.704415     4.673310     1.291212
 C    -0.372755     4.150037     1.764380
 H     0.506260     4.649753     2.174194
 C    -1.609660     4.791637     1.780260
Cl    -1.741780     6.389240     2.438169
