  96
scf done:    -3901.657621
 C    -0.664963    -4.371134    -1.701860
 H    -1.204431    -5.060641    -1.046505
 H    -1.204714    -4.089224    -2.609398
 C     0.745553    -4.333524    -1.683285
 H     1.301189    -4.997025    -1.014786
 H     1.298771    -4.018154    -2.571303
 H     0.004094    -1.922156    -2.075409
Rh    -0.015411    -2.593948    -0.634322
 O    -2.384252    -0.426972    -1.548421
 O    -3.219764    -2.054532     0.221002
 O    -1.604320    -0.179320     0.884405
 O     2.254332    -0.971576     1.169821
 O     3.065661    -1.479387    -1.201492
 O     1.369907     0.383092    -0.826338
 P     1.678331    -1.174891    -0.367502
 P    -1.828103    -1.326870    -0.286148
 C     0.014651    -3.426015     1.108177
 O     0.038973    -3.884261     2.154105
 C    -2.653609     0.917831    -1.551894
 C    -3.974245     1.360872    -1.593735
 H    -4.788725     0.635672    -1.608408
 C    -1.596183     1.826109    -1.539326
 H    -0.573976     1.447170    -1.520202
 C    -4.237749     2.728036    -1.596556
 H    -5.265524     3.093168    -1.620993
 C    -1.857805     3.192307    -1.529299
 H    -1.037976     3.911573    -1.497552
 C    -3.180243     3.636537    -1.551616
Cl    -3.513822     5.338157    -1.524802
 C    -4.500766    -1.733498    -0.170139
 C    -4.949885    -2.120143    -1.432375
 H    -4.272367    -2.655872    -2.099301
 C    -5.348262    -1.048347     0.696441
 H    -4.990038    -0.751226     1.682079
 C    -6.242503    -1.795695    -1.831348
 H    -6.581913    -2.091282    -2.827874
 C    -6.641302    -0.736261     0.282238
 H    -7.296891    -0.189631     0.965549
 C    -7.112823    -1.095308    -0.985333
 C    -8.514505    -0.772604    -1.415026
 H    -8.564634    -0.542970    -2.489565
 H    -8.917630     0.087947    -0.862193
 H    -9.189856    -1.625297    -1.232804
 C    -2.465347     0.238222     1.869932
 C    -2.703383    -0.583530     2.970772
 H    -2.228548    -1.564919     3.020362
 C    -3.049216     1.499719     1.791806
 H    -2.843686     2.137234     0.931643
 C    -3.559822    -0.147706     3.977244
 H    -3.753175    -0.802340     4.831407
 C    -3.900845     1.920420     2.810195
 H    -4.365346     2.907488     2.736489
 C    -4.178893     1.107865     3.915551
 C    -5.081289     1.578716     5.019014
 H    -5.656028     0.747312     5.452774
 H    -5.792711     2.337037     4.661946
 H    -4.499794     2.034388     5.837953
 C     3.561851    -0.824391     1.556102
 C     4.032162     0.422040     1.966907
 H     3.361315     1.281318     1.961453
 C     4.403293    -1.937294     1.572190
 H     4.015313    -2.906189     1.254248
 C     5.356864     0.560696     2.370342
 H     5.738896     1.532511     2.686231
 C     5.728740    -1.800779     1.972671
 H     6.399294    -2.661311     1.980590
 C     6.202197    -0.548018     2.363072
Cl     7.856353    -0.369744     2.848391
 C     3.809921    -0.587353    -1.937716
 C     5.055315    -0.173557    -1.473182
 H     5.424693    -0.544073    -0.516803
 C     3.324009    -0.123297    -3.159251
 H     2.344414    -0.456281    -3.506599
 C     5.803461     0.723910    -2.231256
 H     6.776538     1.050904    -1.854856
 C     4.082260     0.777460    -3.900733
 H     3.688805     1.147816    -4.851353
 C     5.333555     1.221053    -3.452335
 C     6.156099     2.171558    -4.273033
 H     6.852002     2.747320    -3.646113
 H     5.522426     2.882488    -4.823248
 H     6.760134     1.628580    -5.019190
 C     1.696960     1.543057    -0.159753
 C     2.704508     2.366513    -0.654083
 H     3.259672     2.069674    -1.544214
 C     0.970485     1.911472     0.972168
 H     0.176125     1.255279     1.328559
 C     2.997593     3.554979     0.011517
 H     3.797304     4.193156    -0.374051
 C     1.279830     3.101207     1.623846
 H     0.711288     3.379471     2.515447
 C     2.299442     3.944041     1.160709
 C     2.605767     5.238204     1.857048
 H     3.621127     5.590418     1.625824
 H     2.518041     5.139146     2.949086
 H     1.903997     6.029988     1.545760
