 100
scf done:    -2585.313647
 C     1.024653     2.708401    -2.581683
 H     1.636748     3.526532    -2.190059
 H     1.528772     2.074725    -3.316414
 C    -0.384192     2.844905    -2.618687
 H    -0.849581     3.766202    -2.255869
 H    -0.955606     2.327649    -3.394701
 H     0.066698     0.357554    -2.126048
Rh     0.159765     1.495954    -1.011903
 O     2.649650    -0.509585    -1.710472
 C     3.385438     1.204653     0.353114
 C     1.719149    -1.112729     0.800604
 O    -1.458344    -1.013243     0.381460
 C    -2.843665     1.310360     0.829455
 C    -2.903463    -0.000195    -1.747003
 P    -1.753095     0.470429    -0.388930
 P     1.973535     0.269686    -0.377743
 C     0.242285     2.805301     0.371935
 O     0.287405     3.555763     1.241205
 C     3.904215    -1.035952    -1.746483
 C     4.137454    -2.353213    -1.341460
 H     3.297867    -2.960749    -1.000368
 C     4.962407    -0.262099    -2.231662
 H     4.758507     0.752706    -2.577771
 C     5.427048    -2.877844    -1.373067
 H     5.633538    -3.901668    -1.055992
 C     6.253705    -0.780057    -2.263944
 H     7.095737    -0.190433    -2.630985
 C     6.472679    -2.080272    -1.822867
 F     7.709265    -2.577717    -1.846594
 H     3.805456     1.786476    -0.485336
 H     2.911015     1.954777     1.008324
 C     4.478857     0.457872     1.109150
 H     4.061332     0.034634     2.038462
 H     4.841828    -0.400309     0.523434
 C     5.664766     1.348954     1.450994
 H     5.321210     2.213649     2.047856
 H     6.075853     1.773411     0.516768
 C     6.770806     0.617274     2.198048
 H     6.357233     0.188162     3.128042
 H     7.100581    -0.245342     1.592174
 C     7.964300     1.499020     2.527139
 H     8.746349     0.941261     3.064188
 H     7.669544     2.351747     3.159861
 H     8.419511     1.911655     1.612350
 H     1.005463    -1.785452     0.299171
 H     2.659579    -1.663096     0.963304
 C     1.119910    -0.625496     2.113916
 H     1.869887    -0.054293     2.689364
 H     0.303540     0.078665     1.883185
 C     0.564059    -1.753464     2.969998
 H     1.377195    -2.444596     3.257637
 H    -0.137258    -2.347104     2.358774
 C    -0.155817    -1.264229     4.218065
 H     0.546835    -0.690575     4.848175
 H    -0.936766    -0.542565     3.916686
 C    -0.782245    -2.386065     5.030100
 H    -1.297740    -2.004755     5.924772
 H    -0.021086    -3.107668     5.367826
 H    -1.518973    -2.944656     4.430063
 C    -2.373418    -1.988288     0.630540
 C    -2.518712    -3.044530    -0.273751
 H    -1.901840    -3.057282    -1.174082
 C    -3.126934    -1.976189     1.808163
 H    -2.980243    -1.168398     2.526485
 C    -3.440124    -4.058100    -0.027705
 H    -3.574016    -4.888012    -0.723903
 C    -4.048676    -2.989032     2.061199
 H    -4.648629    -2.997520     2.972987
 C    -4.201943    -4.013575     1.134539
 F    -5.087015    -4.981028     1.371848
 H    -3.702652     0.667235     1.080154
 H    -2.236174     1.419258     1.744260
 C    -3.311338     2.676829     0.343302
 H    -2.442425     3.253876    -0.014907
 H    -3.967891     2.555472    -0.536193
 C    -4.045116     3.472030     1.413711
 H    -3.379493     3.600432     2.286483
 H    -4.911496     2.890244     1.778262
 C    -4.516301     4.837450     0.933603
 H    -3.645371     5.409026     0.567359
 H    -5.175790     4.705071     0.057467
 C    -5.240940     5.636874     2.004189
 H    -5.568064     6.617748     1.627485
 H    -4.591814     5.815489     2.876478
 H    -6.135601     5.103816     2.364625
 H    -2.850992     0.844168    -2.454191
 H    -2.397814    -0.833393    -2.264373
 C    -4.352100    -0.346401    -1.423161
 H    -4.405926    -1.058927    -0.585638
 H    -4.883057     0.559179    -1.083808
 C    -5.089090    -0.942915    -2.614232
 H    -4.552135    -1.848410    -2.951415
 H    -5.052165    -0.238450    -3.465152
 C    -6.536050    -1.302693    -2.308494
 H    -6.557212    -2.002210    -1.453933
 H    -7.070000    -0.398078    -1.966994
 C    -7.269521    -1.914980    -3.490590
 H    -8.310742    -2.165845    -3.237639
 H    -6.777489    -2.841112    -3.828961
 H    -7.292693    -1.223985    -4.348652
