  84
scf done:    -3420.729756
 C     0.804231    -3.882902    -2.198884
 H     1.492248    -3.884092    -3.048581
 H     1.164265    -4.427475    -1.322493
 C    -0.580514    -3.720616    -2.406930
 H    -0.970111    -3.600247    -3.421560
 H    -1.296992    -4.130670    -1.690832
 H    -0.087183    -2.500218    -0.221576
Rh     0.232765    -1.857513    -1.641797
 O     2.370839    -1.445185     0.949448
 O     3.483150    -1.284317    -1.262471
 O     1.971027     0.653833    -0.463833
 O    -2.006773     0.603556    -1.971505
 O    -2.927010    -1.421306    -0.711560
 O    -1.293093     0.115058     0.454887
 P    -1.506876    -0.631489    -0.997340
 P     2.013275    -0.994540    -0.609114
 C     0.547614    -1.090218    -3.385899
 O     0.717161    -0.614645    -4.409335
 C     1.406898    -1.615598     1.913065
 C     1.069011    -2.912158     2.299454
 H     1.553467    -3.755758     1.805491
 C     0.795722    -0.515765     2.513690
 H     1.047540     0.493956     2.187064
 C     0.121732    -3.113330     3.299699
 H    -0.161835    -4.116273     3.623245
 C    -0.154439    -0.711451     3.511681
 H    -0.658571     0.132265     3.985592
 C    -0.476163    -2.007377     3.892111
 F    -1.397462    -2.199955     4.840946
 C     4.724954    -0.902779    -0.798343
 C     5.297314    -1.529612     0.306364
 H     4.748664    -2.319259     0.818741
 C     5.410489     0.098028    -1.484145
 H     4.943405     0.562563    -2.353520
 C     6.549725    -1.118288     0.755557
 H     7.021987    -1.582507     1.623111
 C     6.660629     0.511289    -1.037593
 H     7.212781     1.304443    -1.544186
 C     7.211630    -0.097445     0.084655
 F     8.404471     0.302398     0.521649
 C     2.935779     1.548962    -0.066142
 C     3.140477     2.656208    -0.888869
 H     2.553807     2.747401    -1.805007
 C     3.664334     1.402804     1.115799
 H     3.506715     0.533294     1.752319
 C     4.094612     3.610909    -0.549312
 H     4.277790     4.482850    -1.179655
 C     4.626939     2.350196     1.450379
 H     5.225372     2.249001     2.357221
 C     4.834132     3.441092     0.614689
 F     5.757686     4.344166     0.937705
 C    -3.300364     1.032084    -2.159372
 C    -3.736527     2.217151    -1.568761
 H    -3.053850     2.791050    -0.942249
 C    -4.154475     0.293634    -2.979133
 H    -3.791877    -0.627863    -3.436765
 C    -5.040815     2.655990    -1.781791
 H    -5.407785     3.578668    -1.329147
 C    -5.459661     0.727939    -3.192147
 H    -6.149707     0.167051    -3.824770
 C    -5.888706     1.903856    -2.585972
 F    -7.137606     2.320560    -2.786059
 C    -3.686770    -1.328817     0.430599
 C    -4.925700    -0.692801     0.386407
 H    -5.275136    -0.258874    -0.551044
 C    -3.216835    -1.887759     1.619438
 H    -2.240074    -2.373704     1.633547
 C    -5.697664    -0.607837     1.543364
 H    -6.671851    -0.115951     1.538783
 C    -3.977927    -1.792117     2.780698
 H    -3.616027    -2.197583     3.726633
 C    -5.212075    -1.152403     2.726559
 F    -5.945746    -1.058739     3.834837
 C    -1.531379     1.409715     0.824370
 C    -2.558211     1.686798     1.726868
 H    -3.184280     0.873146     2.094063
 C    -0.708736     2.430271     0.345530
 H     0.099631     2.180372    -0.342036
 C    -2.777892     2.999125     2.137235
 H    -3.576366     3.246609     2.838856
 C    -0.930722     3.743661     0.751258
 H    -0.303423     4.561460     0.392371
 C    -1.965913     4.012720     1.640072
 F    -2.179544     5.268229     2.029981
