 106
scf done:    -2465.514165
 C    -0.604335    -1.255960     3.441001
 H    -1.323954    -0.694784     4.045063
 H    -0.887873    -2.298531     3.268915
 C     0.770221    -0.903958     3.480394
 H     1.094148    -0.075208     4.117676
 H     1.530700    -1.675557     3.331903
 H     0.315648    -1.708221     1.114306
Rh    -0.087976    -0.252471     1.604550
 O    -1.958438    -2.073339    -0.581984
 C    -3.473760    -0.994196     1.261410
 C    -2.475521     0.546427    -0.959196
 O     1.391858     0.905331    -1.313578
 C     2.942877     1.452585     0.859897
 C     2.647383    -1.155486    -0.311609
 P     1.661186     0.279027     0.240816
 P    -1.940035    -0.653673     0.323865
 C    -0.500935     1.489893     2.264884
 O    -0.706606     2.535566     2.694809
 C    -0.881797    -2.611741    -1.217395
 C    -0.378870    -2.036601    -2.384315
 H    -0.829167    -1.114882    -2.755302
 C    -0.343020    -3.805322    -0.706783
 C    -0.906911    -4.397023     0.546750
 H    -0.408052    -5.342206     0.799943
 H    -0.783637    -3.698658     1.389444
 H    -1.986879    -4.584533     0.443258
 C     0.667878    -2.649591    -3.069688
 H     1.056440    -2.197267    -3.985079
 C     0.705303    -4.401357    -1.412747
 H     1.133189    -5.332223    -1.030796
 C     1.209599    -3.838057    -2.585224
 H     2.023667    -4.331311    -3.120937
 H    -3.203177    -1.815850     1.945132
 H    -3.630290    -0.112889     1.907238
 C    -4.720154    -1.337831     0.460328
 H    -5.012585    -0.478677    -0.167864
 H    -4.485069    -2.160362    -0.235140
 C    -5.897867    -1.731207     1.341770
 H    -6.117663    -0.911109     2.049740
 H    -5.611412    -2.595885     1.967835
 C    -7.156649    -2.071581     0.556204
 H    -7.439127    -1.204269    -0.066753
 H    -6.928397    -2.885758    -0.154212
 C    -8.328908    -2.472555     1.436910
 H    -9.222721    -2.711639     0.840986
 H    -8.600466    -1.663146     2.133689
 H    -8.087040    -3.359763     2.044100
 H    -1.590720     0.741466    -1.586784
 H    -3.227101     0.047645    -1.593240
 C    -3.004043     1.860722    -0.405246
 H    -3.880402     1.677702     0.241392
 H    -2.238433     2.324435     0.238243
 C    -3.385361     2.837815    -1.508043
 H    -4.177258     2.390330    -2.136279
 H    -2.515100     2.984739    -2.170339
 C    -3.851253     4.188890    -0.987268
 H    -4.717994     4.045998    -0.317351
 H    -3.054295     4.620917    -0.357036
 C    -4.211596     5.164736    -2.095254
 H    -4.536407     6.137002    -1.694456
 H    -5.028595     4.773725    -2.723057
 H    -3.348940     5.345453    -2.756393
 C     0.833578     2.091306    -1.647984
 C     0.426179     3.053904    -0.721282
 H     0.527290     2.864505     0.345434
 C     0.690864     2.329801    -3.030986
 C     1.147729     1.293533    -4.010413
 H     2.234314     1.127931    -3.931269
 H     0.676079     0.320080    -3.810706
 H     0.917007     1.593653    -5.041506
 C    -0.104505     4.267397    -1.157907
 H    -0.408705     5.012463    -0.419160
 C     0.151563     3.550316    -3.438036
 H     0.045496     3.742200    -4.509424
 C    -0.242140     4.523444    -2.517848
 H    -0.653216     5.473796    -2.864513
 H     3.597437     1.741241     0.020840
 H     2.423101     2.366203     1.187334
 C     3.740180     0.875948     2.022436
 H     3.040332     0.458791     2.766082
 H     4.354030     0.028025     1.672362
 C     4.642996     1.901888     2.692975
 H     4.026964     2.743856     3.057716
 H     5.329139     2.336190     1.943094
 C     5.451044     1.329405     3.849052
 H     4.758556     0.889409     4.588388
 H     6.064691     0.488568     3.479559
 C     6.343849     2.354810     4.528659
 H     6.914366     1.911128     5.358587
 H     5.752554     3.188695     4.940039
 H     7.068883     2.785944     3.819545
 H     2.975484    -1.643974     0.621710
 H     1.922271    -1.847682    -0.765451
 C     3.809319    -0.888216    -1.253156
 H     3.425003    -0.394251    -2.160303
 H     4.521814    -0.178861    -0.796943
 C     4.552709    -2.159842    -1.637633
 H     3.834012    -2.880326    -2.065142
 H     4.951734    -2.642145    -0.726430
 C     5.686813    -1.925276    -2.625031
 H     5.280758    -1.437697    -3.529232
 H     6.401466    -1.201819    -2.193564
 C     6.419722    -3.198492    -3.015464
 H     7.231329    -2.999462    -3.731693
 H     5.735112    -3.925280    -3.482085
 H     6.865717    -3.688626    -2.135004
