  80
scf done:    -2571.879330
 C     0.847401    -0.622059     3.708436
 H     0.811313     0.306172     4.286436
 H     0.008797    -1.300146     3.887140
 C     2.090748    -1.129694     3.271029
 H     3.014814    -0.592691     3.502513
 H     2.219515    -2.203807     3.116181
 H     0.403790    -1.702745     1.440236
Rh     1.042645    -0.252043     1.582121
 O    -1.367032    -0.461200    -0.581366
 O    -2.202637    -0.720658     1.793614
 O    -1.836260     1.565324     0.918912
 O     1.847303    -0.260138    -1.729256
 O     3.828166    -0.630971    -0.150242
 O     2.233357    -2.444717    -0.693149
 P     2.234421    -0.892819    -0.216665
 P    -1.084285     0.110321     0.965422
 C     1.871195     1.459785     1.820828
 O     2.413343     2.454157     1.992834
 C    -2.607072    -0.740060    -1.082522
 C    -2.983826    -2.075289    -1.239308
 H    -2.296030    -2.858648    -0.916950
 C    -3.475051     0.282529    -1.471597
 H    -3.167036     1.319118    -1.337718
 C    -4.223761    -2.393239    -1.786440
 H    -4.539834    -3.429375    -1.919732
 C    -4.720259    -0.030720    -2.011052
 H    -5.417786     0.749398    -2.321276
 C    -5.079528    -1.364645    -2.163282
 F    -6.269418    -1.664343    -2.683611
 C    -3.501736    -0.263453     2.208323
 H    -3.841426     0.514285     1.507519
 C    -3.388594     0.329445     3.598012
 H    -2.696155     1.182820     3.598090
 H    -3.012153    -0.424545     4.306233
 H    -4.370185     0.680683     3.950393
 C    -4.434496    -1.452105     2.135113
 H    -4.488234    -1.838359     1.107869
 H    -4.081100    -2.259193     2.794852
 H    -5.447094    -1.160940     2.451699
 C    -1.110613     2.800566     0.845992
 H    -0.129936     2.600625     0.379774
 C    -0.912137     3.342088     2.247137
 H    -0.403301     2.601491     2.880474
 H    -1.884674     3.580140     2.705168
 H    -0.301040     4.256429     2.227230
 C    -1.899001     3.739331    -0.040926
 H    -2.036969     3.304937    -1.039963
 H    -2.888088     3.943433     0.397320
 H    -1.364367     4.691994    -0.164661
 C     1.461968     1.031840    -1.908559
 C     0.314710     1.280882    -2.665683
 H    -0.249887     0.434444    -3.057784
 C     2.192386     2.097811    -1.377596
 H     3.094979     1.897564    -0.798336
 C    -0.097681     2.588327    -2.896948
 H    -0.987946     2.805889    -3.490098
 C     1.768591     3.409453    -1.586923
 H     2.316722     4.254676    -1.167224
 C     0.629039     3.638017    -2.344874
 F     0.206657     4.891462    -2.532790
 C     4.734903    -1.070015    -1.183519
 H     4.140144    -1.345344    -2.069966
 C     5.481723    -2.286308    -0.678899
 H     4.772675    -3.090252    -0.439885
 H     6.051853    -2.036151     0.228877
 H     6.184506    -2.651347    -1.443143
 C     5.634192     0.098405    -1.523768
 H     5.048681     0.943382    -1.913587
 H     6.181524     0.434145    -0.629693
 H     6.366719    -0.193003    -2.291178
 C     0.987043    -3.092201    -1.003450
 H     0.164952    -2.400769    -0.749771
 C     0.881167    -4.327996    -0.137741
 H     0.894593    -4.049366     0.925801
 H     1.725362    -5.007311    -0.332340
 H    -0.054851    -4.868456    -0.345646
 C     0.953114    -3.373484    -2.490773
 H     1.057835    -2.435615    -3.053321
 H     1.775821    -4.047572    -2.775484
 H     0.000826    -3.848300    -2.772052
