  96
scf done:    -3181.099951
 C    -0.686638    -4.441785    -1.041909
 H    -1.285844    -5.001220    -0.318107
 H    -1.172999    -4.279995    -2.007166
 C     0.722121    -4.458213    -0.959187
 H     1.216437    -5.034121    -0.171870
 H     1.327320    -4.303923    -1.855868
 H     0.111890    -2.106635    -1.745298
Rh    -0.001638    -2.550598    -0.222535
 O    -2.212477    -0.448825    -1.569361
 O    -3.220268    -1.787836     0.348282
 O    -1.573186     0.107694     0.854104
 O     2.290785    -0.804824     1.426003
 O     3.131813    -1.629355    -0.846124
 O     1.505564     0.325853    -0.744273
 P     1.741760    -1.174246    -0.087574
 P    -1.772581    -1.181550    -0.164363
 C    -0.087661    -3.105295     1.624931
 O    -0.133269    -3.396616     2.728496
 C    -2.435589     0.890616    -1.777586
 C    -3.734925     1.355021    -1.974658
 H    -4.570810     0.655237    -1.941766
 C    -1.349797     1.764261    -1.820363
 H    -0.345591     1.365724    -1.674151
 C    -3.949647     2.713333    -2.197265
 H    -4.954999     3.108983    -2.351373
 C    -1.563481     3.123412    -2.030338
 H    -0.731118     3.829039    -2.051537
 C    -2.863724     3.581399    -2.214065
 F    -3.074324     4.882981    -2.415832
 C    -4.461525    -1.489109    -0.166907
 C    -4.846768    -2.034667    -1.390828
 H    -4.149586    -2.675768    -1.932779
 C    -5.335193    -0.667245     0.540602
 H    -5.026720    -0.246433     1.497586
 C    -6.100554    -1.733838    -1.913778
 H    -6.389186    -2.155518    -2.880468
 C    -6.588396    -0.380611     0.004367
 H    -7.264199     0.273367     0.562215
 C    -6.994860    -0.899597    -1.230154
 C    -8.356207    -0.602037    -1.788524
 H    -8.343716    -0.570238    -2.887798
 H    -8.740427     0.361056    -1.422707
 H    -9.082620    -1.377682    -1.493212
 C    -2.477185     0.679753     1.715319
 C    -2.805442     0.027174     2.902951
 H    -2.364344    -0.947429     3.118968
 C    -3.017590     1.929461     1.424857
 H    -2.742898     2.432754     0.497657
 C    -3.706564     0.619116     3.782629
 H    -3.970243     0.095920     4.705827
 C    -3.914944     2.508265     2.318876
 H    -4.344812     3.484603     2.079120
 C    -4.282500     1.866530     3.507272
 C    -5.234339     2.507675     4.475088
 H    -4.689057     3.050911     5.265018
 H    -5.867481     1.759346     4.974034
 H    -5.891658     3.232376     3.973707
 C     3.594941    -0.656781     1.830063
 C     4.100266     0.613598     2.104148
 H     3.462656     1.487960     1.972652
 C     4.391502    -1.788867     2.006306
 H     3.974809    -2.774146     1.792221
 C     5.416334     0.753532     2.536664
 H     5.837634     1.736484     2.753977
 C     5.708758    -1.651628     2.435195
 H     6.354939    -2.519848     2.575165
 C     6.206787    -0.378954     2.691509
 F     7.468232    -0.243461     3.100312
 C     3.925460    -0.857013    -1.661237
 C     5.174222    -0.433483    -1.214760
 H     5.505972    -0.699938    -0.211081
 C     3.485513    -0.524314    -2.941646
 H     2.502336    -0.862303    -3.273664
 C     5.972808     0.341089    -2.052719
 H     6.948578     0.677172    -1.691536
 C     4.293753     0.255384    -3.763144
 H     3.936354     0.523746    -4.761097
 C     5.550238     0.705424    -3.336343
 C     6.426944     1.522300    -4.240641
 H     7.122258     2.152003    -3.667112
 H     5.833080     2.176610    -4.895510
 H     7.035077     0.873569    -4.893174
 C     1.851360     1.545888    -0.208532
 C     2.901939     2.273201    -0.760726
 H     3.473462     1.855261    -1.589830
 C     1.103387     2.068491     0.846177
 H     0.274443     1.484886     1.247518
 C     3.216129     3.522371    -0.229137
 H     4.049286     4.085264    -0.658711
 C     1.434740     3.316164     1.364800
 H     0.849308     3.715781     2.197413
 C     2.497529     4.065784     0.842075
 C     2.828677     5.421966     1.394262
 H     3.855061     5.721871     1.139277
 H     2.726893     5.447209     2.489379
 H     2.150415     6.190871     0.988049
