  98
scf done:    -2760.500177
 C     0.836611    -2.604767    -2.526593
 H     0.502436    -3.581373    -2.162913
 H     0.281082    -2.239548    -3.394439
 C     2.169614    -2.181636    -2.306607
 H     2.866199    -2.832080    -1.768620
 H     2.652809    -1.501698    -3.012658
 H     0.652407    -0.073436    -2.161891
Rh     0.843562    -1.115893    -0.961544
 O    -1.881729     0.777281    -1.192933
 C    -2.497948    -1.858973    -1.383983
 C    -1.957439    -0.650041     1.152904
 O     2.569932     0.576153     1.451313
 C     3.434310     1.286132    -1.013331
 C     1.043628     2.237804     0.113636
 P     1.960646     0.674530    -0.115258
 P    -1.355488    -0.693365    -0.569772
 C     1.027221    -2.453780     0.398981
 O     1.072115    -3.312983     1.154635
 C    -2.963979     1.462304    -0.710332
 C    -4.197956     1.381594    -1.352050
 H    -4.306675     0.742877    -2.229395
 C    -2.820904     2.270168     0.419934
 H    -1.853454     2.316711     0.920531
 C    -5.281377     2.109398    -0.859853
 H    -6.246077     2.038151    -1.370085
 C    -3.910017     2.986910     0.899231
 H    -3.784729     3.607323     1.791486
 C    -5.161629     2.922333     0.271000
 C    -6.324899     3.716772     0.791028
 H    -7.269784     3.398344     0.328281
 H    -6.199736     4.792231     0.581838
 H    -6.428651     3.610969     1.881989
 C    -2.892514    -1.632074    -2.707013
 H    -2.597836    -0.703678    -3.202470
 C    -2.843479    -3.072712    -0.778729
 H    -2.524770    -3.282973     0.245794
 C    -3.641014    -2.583056    -3.393739
 H    -3.941558    -2.386098    -4.426838
 C    -3.588555    -4.020224    -1.474245
 H    -3.849962    -4.961814    -0.983030
 C    -4.007862    -3.792014    -2.790433
 C    -4.840510    -4.802456    -3.523346
 H    -4.612743    -5.827116    -3.195401
 H    -5.915447    -4.632973    -3.342391
 H    -4.679747    -4.745913    -4.609683
 C    -3.315136    -0.764311     1.485944
 H    -4.054081    -0.954375     0.704428
 C    -1.036131    -0.386921     2.170579
 H     0.022455    -0.285312     1.921677
 C    -3.730317    -0.618312     2.803014
 H    -4.794047    -0.701454     3.042618
 C    -1.459454    -0.240555     3.488648
 H    -0.723265    -0.033362     4.270210
 C    -2.811152    -0.353126     3.828239
 C    -3.270356    -0.216701     5.249553
 H    -3.500694    -1.204003     5.683180
 H    -2.501345     0.250939     5.880214
 H    -4.187323     0.387774     5.317963
 C     3.058066    -0.590741     1.962172
 C     2.667102    -0.953157     3.250608
 H     1.992721    -0.295105     3.802356
 C     3.929070    -1.411280     1.242945
 H     4.241678    -1.124226     0.237278
 C     3.131566    -2.140255     3.806710
 H     2.811940    -2.417974     4.814896
 C     4.379796    -2.598399     1.813349
 H     5.053461    -3.239300     1.237916
 C     3.985116    -2.992536     3.096174
 C     4.430610    -4.303220     3.676080
 H     4.493750    -4.260228     4.773244
 H     5.415258    -4.602912     3.288631
 H     3.719240    -5.106236     3.419596
 C     3.475494     1.217199    -2.408054
 H     2.638343     0.765437    -2.945936
 C     4.514529     1.854731    -0.328853
 H     4.488708     1.916684     0.761508
 C     4.572809     1.716834    -3.104754
 H     4.586124     1.661952    -4.196905
 C     5.613609     2.335341    -1.032117
 H     6.452581     2.772609    -0.483024
 C     5.663622     2.277095    -2.431271
 C     6.865922     2.774067    -3.178916
 H     7.662767     2.011587    -3.193064
 H     6.621517     3.013014    -4.223730
 H     7.287910     3.675028    -2.709447
 C     0.919583     2.864578     1.355529
 H     1.391558     2.419188     2.232317
 C     0.439115     2.824125    -1.005342
 H     0.503705     2.333336    -1.979046
 C     0.203053     4.056351     1.470989
 H     0.111402     4.532587     2.451365
 C    -0.264824     4.013882    -0.880870
 H    -0.739605     4.450069    -1.763790
 C    -0.401939     4.650566     0.360415
 C    -1.224887     5.897028     0.490340
 H    -1.005096     6.612038    -0.316836
 H    -2.299231     5.654571     0.425515
 H    -1.051395     6.400074     1.452175
