  80
scf done:    -4561.052302
 C     1.820221    -2.441944    -2.348546
 H     2.427547    -2.026375    -3.158024
 H     2.383205    -3.008036    -1.603250
 C     0.459437    -2.750599    -2.572960
 H     0.026441    -2.574166    -3.562893
 H    -0.017650    -3.554829    -2.006979
 H     0.600160    -1.961360    -0.160458
Rh     0.599237    -0.938892    -1.378556
 O     2.607723    -0.484770     1.345930
 C     3.803496     0.473858    -0.860170
 C     1.738888     1.832868     0.529456
 O    -1.689473     1.295990    -0.702481
 C    -2.935605    -1.123630    -0.942941
 C    -1.457712    -0.443386     1.391566
 P    -1.368930    -0.338145    -0.430066
 P     2.152087     0.174525    -0.123165
 C     0.406885     0.201774    -2.907394
 O     0.209818     0.862292    -3.823662
 C     2.559301    -1.824581     1.612109
 C     3.406428    -2.722176     0.962214
 H     4.110487    -2.354338     0.213163
 C     1.659435    -2.273007     2.576702
 H     1.005807    -1.549612     3.064780
 C     3.344090    -4.078491     1.271778
 H     3.990899    -4.805163     0.777087
 C     1.598205    -3.626194     2.894004
 H     0.900374    -4.001804     3.644443
 C     2.438741    -4.514033     2.232566
 F     2.378172    -5.812299     2.528590
 C     4.938604     0.605708    -0.050711
 H     4.844354     0.505632     1.032946
 C     3.937901     0.586509    -2.246191
 H     3.061465     0.461149    -2.885717
 C     6.185835     0.848835    -0.614759
 H     7.075322     0.946043     0.009834
 C     5.178504     0.845158    -2.822410
 H     5.286803     0.936558    -3.904196
 C     6.297175     0.972245    -2.000750
Cl     7.846192     1.277218    -2.707243
 C     1.006910     2.707218    -0.279557
 H     0.715272     2.407105    -1.287385
 C     2.065510     2.220370     1.834441
 H     2.619006     1.534985     2.477923
 C     0.592939     3.944811     0.202461
 H     0.005483     4.619447    -0.421761
 C     1.651570     3.453048     2.329810
 H     1.891628     3.756106     3.350404
 C     0.909977     4.306137     1.511451
Cl     0.366973     5.826697     2.133731
 C    -2.929335     1.873020    -0.663097
 C    -3.390973     2.494313     0.498426
 H    -2.763435     2.508640     1.389369
 C    -3.719799     1.867309    -1.814911
 H    -3.338920     1.382624    -2.715484
 C    -4.648592     3.093972     0.513459
 H    -5.031093     3.588088     1.408299
 C    -4.976809     2.461713    -1.804193
 H    -5.613754     2.463260    -2.690325
 C    -5.428838     3.064652    -0.635608
 F    -6.634133     3.631829    -0.619544
 C    -2.961989    -1.805790    -2.162906
 H    -2.028692    -1.921353    -2.719319
 C    -4.126215    -0.980936    -0.215035
 H    -4.128270    -0.446592     0.737464
 C    -4.150286    -2.333146    -2.660124
 H    -4.174498    -2.867946    -3.610758
 C    -5.319178    -1.502960    -0.699367
 H    -6.249284    -1.388359    -0.140838
 C    -5.323267    -2.174486    -1.923538
Cl    -6.806127    -2.821316    -2.531836
 C    -0.998920     0.619553     2.176449
 H    -0.669939     1.544654     1.700135
 C    -1.848343    -1.632497     2.019097
 H    -2.190524    -2.481073     1.421527
 C    -0.942935     0.508807     3.562940
 H    -0.580071     1.337320     4.173218
 C    -1.803349    -1.753563     3.404096
 H    -2.111902    -2.677549     3.895695
 C    -1.348593    -0.679254     4.170106
Cl    -1.266805    -0.833171     5.891058
