 102
scf done:    -3061.300938
 C     0.239771    -3.665789    -2.296889
 H     0.883651    -3.769206    -3.174711
 H     0.576845    -4.219135    -1.416452
 C    -1.128864    -3.361532    -2.450424
 H    -1.550737    -3.228922    -3.450605
 H    -1.849615    -3.674843    -1.691028
 H    -0.379443    -2.155950    -0.341088
Rh    -0.073885    -1.577637    -1.786702
 O     2.394039    -1.734677     0.502822
 O     3.210307    -0.982031    -1.706186
 O     1.791091     0.641586    -0.299627
 O    -1.720465     1.312858    -1.981603
 O    -3.178889    -0.429097    -0.991931
 O    -1.238516     0.463390     0.417623
 P    -1.559435    -0.060414    -1.106965
 P     1.828792    -0.919627    -0.828712
 C     0.245948    -0.910530    -3.574016
 O     0.431441    -0.506861    -4.625214
 C     1.598857    -2.143387     1.542067
 C     0.745198    -1.263307     2.204112
 H     0.653158    -0.232344     1.865802
 C     1.689888    -3.472029     1.953564
 H     2.352531    -4.148671     1.410873
 C    -0.007654    -1.719228     3.283346
 H    -0.679080    -1.018881     3.788074
 C     0.939308    -3.908184     3.040774
 H     1.019446    -4.951486     3.358971
 C     0.080553    -3.041463     3.730505
 C    -0.698648    -3.514899     4.922960
 H    -1.554762    -2.857267     5.130824
 H    -0.068438    -3.529661     5.827870
 H    -1.080601    -4.536463     4.777017
 C     4.423343    -0.469526    -1.292378
 C     4.777918     0.812072    -1.698036
 H     4.088954     1.369178    -2.336441
 C     5.263686    -1.230551    -0.483161
 H     4.958992    -2.234507    -0.187727
 C     5.970748     1.390182    -1.253249
 C     6.306183     2.804922    -1.621585
 H     6.106952     3.002807    -2.685364
 H     5.688382     3.505004    -1.035335
 H     7.361274     3.036544    -1.419508
 C     6.462281    -0.666369    -0.055852
 H     7.134879    -1.247383     0.579992
 C     6.807814     0.632654    -0.426578
 H     7.745782     1.067323    -0.071470
 C     2.616866     1.455607     0.429852
 C     3.458764     0.995999     1.439174
 H     3.507918    -0.068977     1.661170
 C     2.543556     2.817833     0.128749
 H     1.868439     3.144966    -0.664009
 C     4.276746     1.893609     2.134890
 C     5.225962     1.373021     3.173474
 H     4.718076     0.693679     3.874775
 H     6.036976     0.799658     2.695403
 H     5.681857     2.188332     3.752185
 C     3.340209     3.712223     0.834649
 H     3.287321     4.779197     0.604269
 C     4.208117     3.255543     1.826459
 H     4.839361     3.963902     2.368648
 C    -2.490163     2.404653    -1.633523
 C    -1.860526     3.516776    -1.079938
 H    -0.778473     3.499519    -0.941981
 C    -3.866287     2.398348    -1.833511
 H    -4.337589     1.523444    -2.280948
 C    -2.624754     4.600567    -0.667078
 H    -2.128381     5.456905    -0.203145
 C    -4.617608     3.496732    -1.419522
 H    -5.701470     3.485112    -1.564935
 C    -4.018172     4.604963    -0.812695
 C    -4.836103     5.752226    -0.296811
 H    -4.401133     6.721770    -0.583326
 H    -4.882754     5.731676     0.805310
 H    -5.867812     5.716909    -0.674327
 C    -3.614479    -1.665701    -0.590040
 C    -3.110318    -2.277218     0.555419
 H    -2.353604    -1.766522     1.155224
 C    -4.584286    -2.294005    -1.371106
 H    -4.953512    -1.790224    -2.265768
 C    -3.548090    -3.556199     0.921335
 C    -2.967442    -4.222252     2.133389
 H    -3.190003    -3.647758     3.046366
 H    -3.365794    -5.237744     2.265533
 H    -1.870805    -4.284355     2.057051
 C    -5.035267    -3.554634    -0.997433
 H    -5.790993    -4.059636    -1.603735
 C    -4.515681    -4.186239     0.133164
 H    -4.865279    -5.184680     0.407508
 C    -1.789941     1.428899     1.222628
 C    -3.163474     1.551118     1.412383
 H    -3.840734     0.877402     0.887584
 C    -0.895721     2.274123     1.882229
 H     0.175941     2.161160     1.709164
 C    -3.670581     2.566078     2.231323
 C    -5.154872     2.734035     2.371371
 H    -5.593154     3.072716     1.418175
 H    -5.644175     1.783068     2.631791
 H    -5.408399     3.473227     3.144064
 C    -1.399269     3.266267     2.715856
 H    -0.706992     3.935519     3.232363
 C    -2.775100     3.420516     2.882884
 H    -3.161100     4.213000     3.529155
