  98
scf done:    -2760.492422
 C    -0.846416     1.541167    -2.835779
 H    -1.274595     0.924162    -3.631141
 H    -1.519058     2.292124    -2.418978
 C     0.542787     1.741560    -2.762654
 H     1.201341     1.293239    -3.511764
 H     0.937661     2.642570    -2.284949
 H    -0.206363     1.586714    -0.309360
Rh    -0.055938     0.296986    -1.224376
 O    -3.097819     1.256196    -0.337637
 C    -3.174799    -1.185179    -1.324225
 C    -2.366218    -0.707432     1.406714
 O     2.220391    -0.567487     1.301181
 C     3.454415    -0.318824    -1.081089
 C     2.476222     1.924800     0.399201
 P     1.966290     0.253778    -0.155142
 P    -2.107383    -0.106243    -0.308484
 C     0.020319    -1.304029    -2.272751
 O     0.021147    -2.272417    -2.887704
 C    -2.697166     2.481168     0.112029
 C    -2.908953     3.586860    -0.710741
 H    -3.391600     3.441886    -1.679208
 C    -2.117023     2.659810     1.369147
 H    -1.987798     1.803258     2.031391
 C    -2.497455     4.850823    -0.296618
 H    -2.658104     5.706201    -0.958611
 C    -1.707269     3.928629     1.765646
 H    -1.242410     4.051262     2.747693
 C    -1.869847     5.045124     0.938617
 C    -1.355653     6.392457     1.354473
 H    -1.816529     7.200830     0.769101
 H    -0.264425     6.455460     1.205205
 H    -1.550308     6.589196     2.419655
 C    -4.081910    -0.599423    -2.215623
 H    -4.194657     0.485424    -2.217285
 C    -3.007143    -2.586101    -1.300854
 C    -2.055642    -3.278117    -0.367523
 H    -2.488872    -3.381528     0.640111
 H    -1.111059    -2.729068    -0.242785
 H    -1.814184    -4.284159    -0.737544
 C    -4.840669    -1.384652    -3.077484
 H    -5.547288    -0.913014    -3.764362
 C    -3.781386    -3.352194    -2.180147
 H    -3.658246    -4.438674    -2.172693
 C    -4.690482    -2.769185    -3.057978
 H    -5.277281    -3.398188    -3.731686
 C    -1.206105    -1.011755     2.123207
 H    -0.244436    -0.878745     1.624836
 C    -3.635710    -0.875139     2.007620
 C    -4.928809    -0.603159     1.297092
 H    -5.113581    -1.356905     0.515484
 H    -4.917565     0.372231     0.793719
 H    -5.770323    -0.632125     2.002657
 C    -1.265007    -1.482427     3.431297
 H    -0.344043    -1.726611     3.963117
 C    -3.669809    -1.338288     3.328104
 H    -4.642528    -1.467758     3.810610
 C    -2.507873    -1.641076     4.035871
 H    -2.579281    -2.004602     5.064095
 C     2.038519    -1.899031     1.482053
 C     2.122895    -2.366896     2.798645
 H     2.347781    -1.651943     3.592950
 C     1.782714    -2.804032     0.450221
 H     1.753540    -2.470039    -0.585639
 C     1.917680    -3.712149     3.075827
 H     1.985436    -4.058127     4.111345
 C     1.570344    -4.149383     0.750312
 H     1.362112    -4.841207    -0.070535
 C     1.621460    -4.631611     2.059756
 C     1.356956    -6.075043     2.376232
 H     2.086131    -6.470923     3.099612
 H     1.403293    -6.699480     1.472747
 H     0.355700    -6.208436     2.818985
 C     3.284846    -0.621773    -2.436188
 H     2.293538    -0.500563    -2.874377
 C     4.733440    -0.457046    -0.488985
 C     5.028546    -0.169320     0.954818
 H     4.697100    -1.000157     1.596502
 H     4.515900     0.733223     1.312320
 H     6.109877    -0.039282     1.100752
 C     4.343114    -1.061544    -3.225654
 H     4.180737    -1.290638    -4.281070
 C     5.782610    -0.900851    -1.303459
 H     6.775573    -1.009259    -0.858589
 C     5.601342    -1.203489    -2.650366
 H     6.448357    -1.547579    -3.248980
 C     3.252911     2.670971    -0.496957
 H     3.625760     2.197127    -1.408057
 C     1.987797     2.530612     1.577188
 C     1.141895     1.801684     2.576337
 H     1.721250     1.032406     3.105526
 H     0.307848     1.284978     2.082298
 H     0.726743     2.499526     3.315758
 C     3.558162     4.005749    -0.247611
 H     4.164337     4.568242    -0.961236
 C     2.313940     3.872184     1.807547
 H     1.941446     4.348832     2.718539
 C     3.085369     4.609828     0.913480
 H     3.315290     5.656740     1.125913
