  90
scf done:    -1931.926840
 C    -0.708436    -3.213101    -0.125413
 H    -1.635327    -3.521246     0.369058
 H    -0.715862    -3.357082    -1.209853
 C     0.520215    -3.293015     0.583787
 H     0.523299    -3.654564     1.616909
 H     1.444751    -3.507059     0.039288
 H     0.719551    -1.276454    -0.979436
Rh    -0.067156    -1.227782     0.412513
 C    -0.855632     1.200895    -2.142265
 C    -2.955651    -0.623612    -1.468701
 C    -2.257938     1.515827     0.341828
 C     1.741872     0.560630     2.805756
 C     3.391777    -0.916613     0.950813
 C     2.106433     1.507363     0.029239
 P     1.789035    -0.007854     1.044660
 P    -1.487714     0.207856    -0.714603
 C    -1.002386    -1.160502     2.061649
 O    -1.576982    -1.093579     3.056637
 H    -0.183842     1.962151    -1.712915
 C    -0.134291     0.395022    -3.209312
 H    -0.801340    -0.343915    -3.679556
 H     0.711776    -0.161473    -2.779073
 H    -1.708283     1.745356    -2.580661
 H     0.247347     1.051549    -4.006650
 H    -2.544257    -1.410123    -2.123212
 H    -3.495628     0.089112    -2.114238
 C    -3.872286    -1.248287    -0.426647
 H    -3.247800    -1.788601     0.304174
 H    -4.392616    -0.454563     0.140728
 C    -4.919195    -2.213186    -0.986685
 H    -4.373890    -3.001651    -1.539221
 C    -5.681551    -2.881938     0.151065
 H    -4.998678    -3.405515     0.838021
 H    -6.409276    -3.616334    -0.227768
 H    -6.238809    -2.135257     0.741540
 C    -5.875516    -1.531636    -1.958970
 H    -6.628661    -2.239257    -2.339157
 H    -5.350623    -1.109758    -2.829362
 H    -6.415437    -0.707746    -1.461332
 H    -1.415670     2.092895     0.761976
 H    -2.686486     0.967124     1.195186
 C    -3.287894     2.442242    -0.286374
 H    -2.809908     3.041001    -1.079577
 H    -4.075433     1.850087    -0.786654
 C    -3.964145     3.398347     0.702579
 H    -3.163720     3.944175     1.237468
 C    -4.811384     4.421856    -0.044788
 H    -4.209261     4.995378    -0.766857
 H    -5.281144     5.138286     0.646803
 H    -5.619756     3.924202    -0.606460
 C    -4.802097     2.657072     1.739032
 H    -5.282119     3.360233     2.436949
 H    -4.203269     1.956758     2.340158
 H    -5.602592     2.077098     1.248909
 H     1.606370    -0.375099     3.374230
 C     2.878693     1.382566     3.392324
 H     2.922434     2.391775     2.958362
 H     3.859882     0.908438     3.238919
 H     0.782467     1.095198     2.904785
 H     2.742332     1.503724     4.478428
 H     3.287135    -1.770543     1.641644
 H     4.200006    -0.277649     1.341651
 C     3.712867    -1.419571    -0.449438
 H     2.838874    -1.974747    -0.825428
 H     3.838649    -0.564016    -1.138766
 C     4.956783    -2.305550    -0.543764
 H     4.817169    -3.145282     0.163260
 C     5.079228    -2.890591    -1.945996
 H     4.178031    -3.458995    -2.223453
 H     5.944758    -3.566346    -2.027807
 H     5.210517    -2.090025    -2.693469
 C     6.230956    -1.565819    -0.150452
 H     7.113950    -2.217757    -0.238528
 H     6.195735    -1.198809     0.886395
 H     6.394700    -0.695097    -0.808536
 H     1.322067     2.228358     0.321371
 H     1.848147     1.188227    -0.991294
 C     3.478200     2.167574     0.038051
 H     3.743106     2.484784     1.057530
 H     4.248602     1.434092    -0.257266
 C     3.591157     3.379831    -0.893442
 H     2.803775     4.100052    -0.599344
 C     4.942082     4.061650    -0.708372
 H     5.100520     4.366260     0.337971
 H     5.030304     4.960261    -1.338389
 H     5.764329     3.380288    -0.984331
 C     3.367784     3.012119    -2.356870
 H     3.479366     3.893217    -3.007390
 H     2.365288     2.596219    -2.538040
 H     4.104625     2.260039    -2.686514
