  92
scf done:    -2880.308623
 C     1.799238    -3.828867     0.316373
 H     2.299529    -4.146968    -0.603290
 H     2.476495    -3.644716     1.154851
 C     0.456679    -4.203575     0.554197
 H    -0.073371    -4.816663    -0.181270
 H     0.092859    -4.313267     1.578887
 H     0.756526    -1.875538     1.561129
Rh     0.540902    -2.102443     0.000865
 O     1.718982     0.775259     1.156910
 C     3.731294    -0.864739     0.393665
 C     2.220827     0.651768    -1.518618
 O    -1.471276     0.416548    -0.363588
 C    -3.017386    -1.845196    -0.272122
 C    -1.907519    -0.664669     2.105250
 P    -1.475108    -1.115813     0.388396
 P     2.023503    -0.390609    -0.033128
 C     0.346756    -2.383856    -1.884801
 O     0.253371    -2.537847    -3.017206
 C     1.912688     2.117324     0.976225
 C     3.105692     2.723582     1.370730
 H     3.904386     2.112167     1.792984
 C     0.883677     2.882339     0.421977
 H    -0.033145     2.380415     0.110355
 C     3.272188     4.097437     1.209111
 H     4.195027     4.597894     1.507773
 C     1.047472     4.253380     0.256002
 H     0.259978     4.870186    -0.180535
 C     2.242442     4.844222     0.650606
 F     2.403934     6.158706     0.490832
 C     4.215821    -0.712113     1.693980
 H     3.594751    -0.224369     2.448107
 C     4.511933    -1.527535    -0.561947
 H     4.120455    -1.668197    -1.574396
 C     5.483413    -1.196531     2.017606
 H     5.866758    -1.075301     3.033867
 C     5.782446    -2.014270    -0.250532
 C     6.613762    -2.725790    -1.278166
 H     7.619798    -2.284847    -1.354649
 H     6.745049    -3.787292    -1.012883
 H     6.147672    -2.684541    -2.272334
 C     6.259792    -1.834906     1.056220
 H     7.252518    -2.209567     1.321213
 C     3.405208     1.340483    -1.814546
 H     4.293941     1.198271    -1.196559
 C     1.088541     0.853860    -2.310680
 H     0.160850     0.341384    -2.044657
 C     3.437161     2.212115    -2.897162
 H     4.357030     2.752676    -3.132616
 C     1.106207     1.734405    -3.397927
 C    -0.135067     1.944110    -4.215172
 H    -0.503865     0.990204    -4.624023
 H    -0.945019     2.365576    -3.598250
 H     0.042862     2.628836    -5.056007
 C     2.298247     2.407216    -3.679723
 H     2.336136     3.099538    -4.525462
 C    -2.541082     1.244037    -0.527003
 C    -2.938004     2.116888     0.489841
 H    -2.402970     2.111816     1.440250
 C    -3.218908     1.240404    -1.749663
 H    -2.897445     0.546663    -2.528312
 C    -4.021687     2.969365     0.289692
 H    -4.353511     3.657280     1.069456
 C    -4.298394     2.094205    -1.955013
 H    -4.844087     2.106277    -2.900271
 C    -4.691012     2.945394    -0.927912
 F    -5.730387     3.758761    -1.117930
 C    -2.927149    -3.027912    -1.014850
 H    -1.955872    -3.516093    -1.118722
 C    -4.268187    -1.231906    -0.114718
 H    -4.359718    -0.321488     0.481376
 C    -4.068012    -3.572351    -1.597511
 H    -3.996302    -4.499258    -2.171280
 C    -5.419115    -1.757434    -0.710104
 C    -6.731632    -1.044431    -0.563582
 H    -6.957109    -0.834126     0.493254
 H    -6.706703    -0.073460    -1.084886
 H    -7.562043    -1.631251    -0.980132
 C    -5.299975    -2.937178    -1.452927
 H    -6.189907    -3.366620    -1.921603
 C    -2.986256    -1.208764     2.805208
 H    -3.653543    -1.926812     2.325415
 C    -1.042339     0.227391     2.755696
 H    -0.164213     0.602504     2.223886
 C    -3.205972    -0.832772     4.131892
 H    -4.049600    -1.258380     4.680862
 C    -1.261253     0.621309     4.075100
 C    -0.330461     1.584955     4.752941
 H     0.163941     1.115748     5.618559
 H     0.452020     1.934395     4.065028
 H    -0.872080     2.466974     5.129872
 C    -2.362776     0.079731     4.755522
 H    -2.550922     0.370558     5.793104
