  86
scf done:    -2603.354407
 C    -1.989199    -0.497610    -3.129150
 H    -2.605294    -1.399063    -3.198255
 H    -2.556609     0.434966    -3.191584
 C    -0.634144    -0.526538    -3.530852
 H    -0.193419    -1.451619    -3.914071
 H    -0.156220     0.383066    -3.904450
 H    -0.772951     1.047562    -1.513696
Rh    -0.735129    -0.531038    -1.363213
 O    -2.683658     1.488058     0.527201
 C    -3.929096    -0.727236    -0.100182
 C    -2.029391    -0.721206     1.979380
 O     1.705745    -0.778693     0.847230
 C     2.726541    -0.986755    -1.713749
 C     2.075626     1.537210    -0.620432
 P     1.423889    -0.172648    -0.696445
 P    -2.254788    -0.106968     0.270111
 C    -0.820869    -2.434443    -1.185264
 O    -0.935799    -3.570980    -1.073731
 C    -1.768981     2.502859     0.598720
 C    -0.743548     2.485537     1.541652
 H    -0.640510     1.622737     2.200991
 C    -1.933945     3.583252    -0.281618
 C    -3.019545     3.550301    -1.312009
 H    -2.989168     4.445147    -1.948235
 H    -2.917126     2.661675    -1.955080
 H    -4.014678     3.494323    -0.843025
 C     0.126102     3.569562     1.636734
 H     0.931663     3.555441     2.373999
 C    -1.056167     4.662535    -0.155214
 H    -1.174342     5.516133    -0.828629
 C    -0.035727     4.665232     0.794350
 H     0.642507     5.517752     0.865576
 C    -4.220375    -2.076435     0.135447
 C    -4.884156     0.086997    -0.716298
 C    -6.404814    -1.787692    -0.854395
 C    -6.118502    -0.443721    -1.087325
 C    -5.452290    -2.602972    -0.242295
 H    -3.481382    -2.719699     0.621253
 H    -5.671882    -3.656321    -0.052536
 H    -7.372431    -2.201384    -1.148223
 H    -6.862558     0.200057    -1.562864
 H    -4.657116     1.138282    -0.897015
 C    -2.883100    -0.287057     3.002932
 C    -1.009528    -1.630852     2.263977
 C    -1.701238    -1.686916     4.577018
 C    -0.852832    -2.121391     3.561567
 C    -2.713412    -0.764280     4.298002
 H    -3.674294     0.432107     2.775720
 H    -3.375101    -0.419999     5.096535
 H    -1.572730    -2.063203     5.594944
 H    -0.051528    -2.831686     3.778425
 H    -0.315368    -1.925108     1.474654
 C     2.842694    -1.045285     1.559261
 C     3.800993    -1.955011     1.109624
 H     3.668611    -2.445817     0.146675
 C     2.962682    -0.432102     2.821418
 C     1.905090     0.509332     3.307453
 H     1.745693     1.327865     2.590202
 H     0.937945    -0.004798     3.416380
 H     2.180292     0.942472     4.278631
 C     4.916325    -2.233819     1.897213
 H     5.664575    -2.942365     1.534526
 C     4.089574    -0.736086     3.589578
 H     4.196228    -0.262465     4.569492
 C     5.067637    -1.620868     3.137565
 H     5.939686    -1.836610     3.758802
 C     2.464771    -2.270911    -2.211610
 C     3.961108    -0.392458    -2.001598
 C     4.659237    -2.364836    -3.212444
 C     4.919495    -1.078335    -2.746685
 C     3.426089    -2.960415    -2.943861
 H     1.497885    -2.737386    -2.017182
 H     3.207488    -3.964395    -3.315200
 H     5.412833    -2.901615    -3.793748
 H     5.878349    -0.600614    -2.961571
 H     4.182373     0.612901    -1.640281
 C     1.577759     2.475424    -1.530219
 C     3.110110     1.913444     0.247467
 C     3.136438     4.130242    -0.715390
 C     3.628357     3.206206     0.205093
 C     2.111914     3.760076    -1.583852
 H     0.753439     2.193293    -2.188864
 H     1.710232     4.481367    -2.299043
 H     3.548921     5.141524    -0.751524
 H     4.430761     3.487021     0.891620
 H     3.533107     1.194478     0.950571
