  98
scf done:    -2760.496092
 C    -0.771731    -3.958090    -0.595231
 H    -1.276483    -4.439948     0.247471
 H    -1.373895    -3.900966    -1.505877
 C     0.639316    -3.962936    -0.674255
 H     1.234576    -4.445886     0.106506
 H     1.133015    -3.910373    -1.648223
 H    -0.117557    -1.721641    -1.631254
Rh    -0.028519    -1.993885    -0.064136
 O    -1.954401     0.369628    -1.370538
 C    -3.452145    -1.608294    -0.279890
 C    -2.238791     0.419624     1.351523
 O     1.971165     0.264370     1.262146
 C     3.399755    -1.663376    -0.004727
 C     2.176039     0.476283    -1.467871
 P     1.845342    -0.711489    -0.123851
 P    -1.888973    -0.693457    -0.054054
 C     0.079643    -2.360764     1.813856
 O     0.150123    -2.575265     2.937261
 C    -2.616651     1.565782    -1.348188
 C    -3.931364     1.666009    -1.797010
 H    -4.449070     0.771408    -2.145577
 C    -1.950039     2.706758    -0.895002
 H    -0.920957     2.610108    -0.545563
 C    -4.572917     2.904095    -1.779904
 H    -5.606019     2.972412    -2.131900
 C    -2.602693     3.932783    -0.881948
 H    -2.071448     4.816084    -0.516312
 C    -3.928645     4.056176    -1.320025
 C    -4.624540     5.386247    -1.291446
 H    -4.096248     6.129140    -1.910249
 H    -4.668387     5.791798    -0.267953
 H    -5.654774     5.309718    -1.666322
 C    -3.916175    -1.884876    -1.570452
 H    -3.396382    -1.461933    -2.433137
 C    -4.099077    -2.178352     0.821144
 H    -3.727228    -1.975726     1.830300
 C    -5.033437    -2.697904    -1.741512
 H    -5.403851    -2.907069    -2.748248
 C    -5.218215    -3.001688     0.661357
 C    -5.884429    -3.625172     1.853572
 H    -5.822577    -2.972814     2.736689
 H    -6.944731    -3.840416     1.657739
 H    -5.398705    -4.579196     2.118464
 C    -5.680992    -3.247523    -0.636871
 H    -6.559077    -3.882723    -0.782651
 C    -3.512971     0.949928     1.602633
 H    -4.367810     0.640550     0.998419
 C    -1.153350     0.831238     2.128472
 H    -0.160044     0.423379     1.919985
 C    -3.677405     1.881574     2.620424
 H    -4.666778     2.301298     2.817699
 C    -1.307619     1.768232     3.158890
 C    -0.121267     2.193448     3.973891
 H     0.408170     1.320348     4.384848
 H     0.608481     2.740569     3.355531
 H    -0.416107     2.842737     4.810153
 C    -2.584801     2.286452     3.389444
 H    -2.729027     3.018684     4.189117
 C     2.689598     1.424804     1.331748
 C     2.088129     2.625185     0.945748
 H     1.065003     2.603204     0.567078
 C     3.999457     1.430564     1.807047
 H     4.467512     0.490179     2.100783
 C     2.798551     3.816304     1.027386
 H     2.318278     4.746639     0.711418
 C     4.699330     2.633864     1.884525
 H     5.728281     2.627183     2.254925
 C     4.118971     3.845285     1.496203
 C     4.872053     5.140563     1.592730
 H     4.497284     5.759099     2.425054
 H     4.764998     5.736959     0.673658
 H     5.944472     4.971067     1.763947
 C     3.864117    -2.071941     1.251705
 H     3.354755    -1.728958     2.155424
 C     4.034685    -2.132430    -1.157916
 H     3.664128    -1.824729    -2.140365
 C     4.967616    -2.914522     1.338159
 H     5.337683    -3.226115     2.318122
 C     5.140473    -2.987392    -1.083519
 C     5.791682    -3.496966    -2.336566
 H     6.795458    -3.897705    -2.136598
 H     5.194285    -4.307006    -2.786770
 H     5.882673    -2.703521    -3.093356
 C     5.602399    -3.365841     0.181328
 H     6.469438    -4.027355     0.260556
 C     3.445226     1.042617    -1.661969
 H     4.294500     0.714488    -1.059897
 C     1.099429     0.909143    -2.244578
 H     0.114877     0.461094    -2.087940
 C     3.612815     2.033868    -2.621346
 H     4.598416     2.480040    -2.774049
 C     1.256440     1.910040    -3.212647
 C     0.077179     2.371417    -4.018487
 H    -0.491754     1.516962    -4.414329
 H    -0.622098     2.952461    -3.395184
 H     0.385748     3.003508    -4.863095
 C     2.527748     2.464323    -3.386495
 H     2.673343     3.244908    -4.138872
