  86
scf done:    -4441.239653
 C     1.845683    -2.299862    -2.471120
 H     2.447399    -1.836433    -3.258585
 H     2.415127    -2.895491    -1.754386
 C     0.487836    -2.611902    -2.709627
 H     0.050898    -2.391080    -3.688924
 H     0.020913    -3.448741    -2.183790
 H     0.619826    -1.941587    -0.260035
Rh     0.611216    -0.860411    -1.426739
 O     2.623591    -0.527160     1.314568
 C     3.807593     0.540339    -0.847132
 C     1.740175     1.821133     0.608329
 O    -1.694710     1.323109    -0.647312
 C    -2.919127    -1.095978    -0.982258
 C    -1.436576    -0.500019     1.370873
 P    -1.357404    -0.315141    -0.445111
 P     2.160415     0.195278    -0.118972
 C     0.406522     0.351855    -2.897104
 O     0.202271     1.053855    -3.780738
 C     2.575444    -1.878285     1.526978
 C     3.401406    -2.753311     0.824307
 H     4.090239    -2.360712     0.073317
 C     1.695104    -2.364356     2.489073
 H     1.052618    -1.660800     3.019470
 C     3.329083    -4.119300     1.084701
 H     3.972956    -4.802449     0.523775
 C     1.639028    -3.731215     2.741627
 H     0.938565    -4.103290     3.494704
 C     2.449964    -4.635163     2.044706
 C     2.401113    -6.106646     2.338832
 H     2.654787    -6.704150     1.451150
 H     1.403703    -6.415475     2.684160
 H     3.119120    -6.377350     3.131262
 C     4.953530     0.588466    -0.044268
 H     4.870000     0.394821     1.027465
 C     3.927125     0.771918    -2.219874
 H     3.042289     0.712915    -2.857478
 C     6.197156     0.866147    -0.601128
 H     7.095061     0.898141     0.018164
 C     5.163715     1.066100    -2.787221
 H     5.260292     1.250169    -3.858275
 C     6.293587     1.108618    -1.972017
Cl     7.838294     1.456545    -2.669870
 C     0.995469     2.725706    -0.154398
 H     0.695201     2.468488    -1.171467
 C     2.075423     2.151887     1.926611
 H     2.638642     1.441566     2.533598
 C     0.577919     3.937806     0.386106
 H    -0.020683     4.634808    -0.201858
 C     1.658348     3.358414     2.480183
 H     1.905094     3.616958     3.511377
 C     0.904768     4.242388     1.706878
Cl     0.358846     5.731029     2.401256
 C    -2.943969     1.882184    -0.587248
 C    -3.427238     2.431743     0.598496
 H    -2.810032     2.408178     1.496711
 C    -3.727448     1.923951    -1.742169
 H    -3.333338     1.491897    -2.663964
 C    -4.698802     3.003120     0.624316
 H    -5.070021     3.429885     1.560142
 C    -4.993698     2.494241    -1.699719
 H    -5.601318     2.511316    -2.608753
 C    -5.507196     3.041408    -0.515863
 C    -6.870130     3.670039    -0.487607
 H    -7.219209     3.829799     0.542265
 H    -7.612332     3.043894    -1.005774
 H    -6.865791     4.650586    -0.991794
 C    -2.943860    -1.732635    -2.226329
 H    -2.011033    -1.819153    -2.788847
 C    -4.108210    -0.989327    -0.246083
 H    -4.111507    -0.488828     0.724489
 C    -4.129665    -2.250433    -2.739620
 H    -4.152932    -2.749452    -3.709542
 C    -5.298711    -1.501792    -0.746387
 H    -6.228037    -1.413805    -0.181830
 C    -5.301221    -2.127305    -1.994406
Cl    -6.782479    -2.761502    -2.622995
 C    -0.993012     0.535186     2.200096
 H    -0.681272     1.485531     1.763552
 C    -1.807433    -1.720941     1.946754
 H    -2.136529    -2.548143     1.312983
 C    -0.932577     0.365361     3.580446
 H    -0.581108     1.172149     4.225468
 C    -1.758598    -1.900916     3.325044
 H    -2.050789    -2.850186     3.776712
 C    -1.318955    -0.853803     4.135746
Cl    -1.230150    -1.081654     5.849005
