  96
scf done:    -3181.113161
 C     0.140050    -3.724136    -2.196144
 H     0.778367    -3.859963    -3.073571
 H     0.458699    -4.280428    -1.310771
 C    -1.217666    -3.374621    -2.350774
 H    -1.636920    -3.238842    -3.351597
 H    -1.947628    -3.654537    -1.587075
 H    -0.429558    -2.169527    -0.258202
Rh    -0.101682    -1.620604    -1.710112
 O     2.339406    -1.761779     0.614185
 O     3.207156    -1.135723    -1.621677
 O     1.825919     0.590820    -0.300485
 O    -1.627988     1.333506    -1.911909
 O    -3.164840    -0.347845    -0.938834
 O    -1.206494     0.452917     0.492176
 P    -1.532529    -0.050362    -1.038436
 P     1.819919    -0.990354    -0.766332
 C     0.233870    -0.987600    -3.507516
 O     0.426397    -0.602977    -4.564389
 C     1.477596    -2.146100     1.608266
 C     1.391337    -3.501672     1.922984
 H     1.989287    -4.215537     1.354132
 C     0.717876    -1.208486     2.307690
 H     0.778972    -0.153313     2.045887
 C     0.545565    -3.923996     2.944627
 H     0.458704    -4.978167     3.213583
 C    -0.139438    -1.627544     3.320863
 H    -0.752503    -0.911176     3.870774
 C    -0.211365    -2.979583     3.628618
 F    -1.038667    -3.385766     4.594595
 C     4.435471    -0.648705    -1.220261
 C     4.840856     0.597583    -1.683615
 H     4.178690     1.148359    -2.355003
 C     5.239906    -1.401230    -0.368012
 H     4.895810    -2.378116    -0.028356
 C     6.051446     1.151283    -1.255890
 C     6.443925     2.532288    -1.689930
 H     6.267628     2.682224    -2.765537
 H     5.844050     3.283624    -1.150397
 H     7.503775     2.735743    -1.482784
 C     6.455679    -0.862343     0.043174
 H     7.101198    -1.436994     0.711968
 C     6.852779     0.403519    -0.385986
 H     7.803916     0.819200    -0.043486
 C     2.681161     1.410538     0.389024
 C     3.500884     0.971987     1.425667
 H     3.510396    -0.082073     1.699917
 C     2.659694     2.757070     0.017969
 H     2.000271     3.067647    -0.794460
 C     4.348843     1.873269     2.080048
 C     5.274136     1.372532     3.149415
 H     4.739064     0.750620     3.883018
 H     6.064419     0.744896     2.706147
 H     5.758571     2.199377     3.686980
 C     3.485877     3.656249     0.682555
 H     3.474017     4.711286     0.397920
 C     4.331607     3.219160     1.702012
 H     4.986116     3.930739     2.211317
 C    -2.413095     2.430541    -1.626429
 C    -1.802006     3.568214    -1.103009
 H    -0.724045     3.563275    -0.937899
 C    -3.786314     2.403574    -1.860182
 H    -4.239071     1.508290    -2.284311
 C    -2.575991     4.665955    -0.743998
 H    -2.129802     5.555108    -0.296482
 C    -4.564397     3.502079    -1.504411
 H    -5.645540     3.504762    -1.653454
 C    -3.951246     4.609645    -0.934178
 F    -4.705318     5.641207    -0.545181
 C    -3.667190    -1.561708    -0.541382
 C    -3.222925    -2.188270     0.621215
 H    -2.456243    -1.709995     1.234904
 C    -4.649242    -2.144194    -1.341272
 H    -4.971144    -1.629499    -2.247940
 C    -3.740790    -3.436429     0.989274
 C    -3.216439    -4.138384     2.206496
 H    -3.119512    -3.457517     3.063754
 H    -3.865997    -4.974222     2.501221
 H    -2.210723    -4.545074     2.012053
 C    -5.179237    -3.373654    -0.966363
 H    -5.949328    -3.841147    -1.584517
 C    -4.725110    -4.018480     0.183911
 H    -5.141150    -4.989820     0.462765
 C    -1.679989     1.504907     1.237663
 C    -3.044183     1.722655     1.430979
 H    -3.765477     1.052047     0.963344
 C    -0.729790     2.338391     1.824106
 H     0.330949     2.153874     1.646969
 C    -3.479596     2.823943     2.172294
 C    -4.943836     3.125290     2.304242
 H    -5.218367     3.974755     1.657315
 H    -5.561760     2.266811     2.007071
 H    -5.207801     3.401667     3.336094
 C    -1.163729     3.416757     2.591504
 H    -0.425755     4.077267     3.053140
 C    -2.523002     3.665638     2.756506
 H    -2.852247     4.526366     3.344390
