  80
scf done:    -3840.497074
 C    -2.035822    -1.009005    -3.189134
 H    -2.583080    -1.956335    -3.186378
 H    -2.671067    -0.127573    -3.312455
 C    -0.688116    -0.965695    -3.611226
 H    -0.205353    -1.887553    -3.950594
 H    -0.281349    -0.052539    -4.053371
 H    -0.847017     0.753360    -1.722504
Rh    -0.776289    -0.812135    -1.440544
 O    -3.348077     0.964842    -0.057347
 C    -3.899253    -1.579993    -0.208189
 C    -2.230873    -0.605179     1.843537
 O     1.686195    -1.204062     0.712082
 C     2.688810    -0.057229    -1.545836
 C     1.202209     1.453114     0.356123
 P     1.179927    -0.147905    -0.521834
 P    -2.476353    -0.465668     0.036751
 C    -0.518839    -2.691593    -1.157059
 O    -0.307477    -3.803541    -0.981074
 C    -2.787031     2.187817    -0.286631
 C    -2.680611     2.666064    -1.593078
 H    -3.004609     2.032989    -2.419825
 C    -2.381694     2.981845     0.786111
 H    -2.463354     2.593253     1.802302
 C    -2.168640     3.937963    -1.830053
 H    -2.074841     4.320261    -2.847536
 C    -1.881335     4.259369     0.555200
 H    -1.560642     4.891889     1.383867
 C    -1.770543     4.726456    -0.752746
Cl    -1.097566     6.299174    -1.042985
 C    -3.807657    -2.905927     0.233256
 H    -2.926460    -3.241959     0.786814
 C    -5.035480    -1.168908    -0.911422
 H    -5.114230    -0.134693    -1.250273
 C    -4.832384    -3.810318    -0.020893
 H    -4.779576    -4.846256     0.318274
 C    -6.069339    -2.066416    -1.169297
 H    -6.966757    -1.764041    -1.712102
 C    -5.952677    -3.376147    -0.722311
 F    -6.936918    -4.237406    -0.967619
 C    -3.167053    -0.070876     2.739590
 H    -4.047361     0.448408     2.352764
 C    -1.111267    -1.278905     2.338323
 H    -0.362463    -1.675505     1.647936
 C    -2.978920    -0.192329     4.111072
 H    -3.689753     0.221627     4.828705
 C    -0.920184    -1.421935     3.711893
 H    -0.051478    -1.944488     4.116752
 C    -1.855161    -0.870395     4.578378
 F    -1.674230    -0.988148     5.889927
 C     2.995741    -1.432719     1.030021
 C     3.639624    -0.678055     2.011408
 H     3.096059     0.114154     2.526978
 C     3.686845    -2.448646     0.366469
 H     3.165749    -3.033003    -0.393877
 C     4.975547    -0.926737     2.316533
 H     5.489451    -0.340853     3.080232
 C     5.021445    -2.697682     0.663842
 H     5.571321    -3.483486     0.143796
 C     5.663190    -1.929414     1.635594
Cl     7.329590    -2.228217     2.002591
 C     3.837820     0.642405    -1.146430
 H     3.823702     1.247979    -0.238281
 C     2.732563    -0.828182    -2.712366
 H     1.830109    -1.361546    -3.020188
 C     5.008329     0.565067    -1.890864
 H     5.914112     1.095446    -1.592343
 C     3.898060    -0.915112    -3.467619
 H     3.949474    -1.510255    -4.380947
 C     5.022325    -0.218178    -3.041249
 F     6.140513    -0.296272    -3.753461
 C     1.380929     2.645182    -0.357637
 H     1.555163     2.616451    -1.436251
 C     0.944329     1.514230     1.729629
 H     0.771428     0.595028     2.291384
 C     1.337682     3.874418     0.290056
 H     1.451012     4.814185    -0.252634
 C     0.897518     2.738926     2.390432
 H     0.695010     2.803366     3.461044
 C     1.097978     3.901478     1.658808
 F     1.021555     5.077894     2.279316
