  98
scf done:    -2760.486910
 C    -0.242176     2.639563     1.213205
 H    -1.220219     2.862631     1.650719
 H     0.606867     2.937531     1.836171
 C    -0.096662     2.620195    -0.194178
 H    -0.959954     2.821251    -0.835171
 H     0.855485     2.929892    -0.634390
 H     0.089221    -0.379420    -0.766946
Rh    -0.078148     0.563283     0.542983
 O     2.627244     0.682566    -1.454388
 C     3.076519     1.955657     0.787510
 C     3.061470    -0.991517     0.646463
 O    -2.490769    -1.421941    -0.540873
 C    -3.533086     0.289229     1.321855
 C    -2.975601     1.168000    -1.309679
 P    -2.247351     0.139841     0.014253
 P     2.147044     0.520066     0.147041
 C    -0.103607    -0.441598     2.154990
 O    -0.093661    -1.000583     3.160383
 C     2.290265    -0.196514    -2.452955
 C     2.899662    -1.450813    -2.523394
 H     3.606784    -1.746525    -1.749271
 C     1.399541     0.233407    -3.450979
 C     0.766723     1.586161    -3.379818
 H     0.188461     1.800543    -4.288541
 H     0.093069     1.645740    -2.512471
 H     1.523178     2.375040    -3.251142
 C     2.608430    -2.309503    -3.580379
 H     3.086988    -3.290458    -3.625045
 C     1.133932    -0.647261    -4.504664
 H     0.446955    -0.324492    -5.291536
 C     1.719479    -1.909533    -4.574151
 H     1.487355    -2.574313    -5.409193
 C     3.531730     2.931741    -0.107898
 H     3.390919     2.773355    -1.177665
 C     3.252365     2.137177     2.176807
 C     2.738437     1.163473     3.194313
 H     3.015050     0.124832     2.961296
 H     1.638738     1.195735     3.232533
 H     3.123218     1.404265     4.194308
 C     4.179747     4.075160     0.348336
 H     4.531360     4.822861    -0.366153
 C     3.920031     3.289433     2.608453
 H     4.074926     3.430730     3.681534
 C     4.381099     4.251429     1.714278
 H     4.895098     5.140377     2.087617
 C     2.282269    -2.121494     0.921722
 H     1.196018    -2.044162     0.847807
 C     4.474188    -1.092473     0.655047
 C     5.394227     0.033386     0.281926
 H     5.447976     0.797499     1.072066
 H     5.054640     0.543904    -0.629351
 H     6.410154    -0.348198     0.110455
 C     2.865062    -3.340472     1.253633
 H     2.228104    -4.201596     1.464953
 C     5.035242    -2.327898     0.998458
 H     6.124763    -2.418595     1.013758
 C     4.251099    -3.438988     1.303257
 H     4.730548    -4.385501     1.565267
 C    -1.966570    -2.497329     0.144327
 C    -2.396168    -2.776031     1.442740
 H    -3.126243    -2.119841     1.916794
 C    -1.038079    -3.330463    -0.503375
 C    -0.574529    -3.064269    -1.900098
 H     0.111698    -3.851187    -2.238827
 H    -1.417832    -3.013293    -2.603520
 H    -0.038482    -2.105001    -1.961543
 C    -1.884929    -3.871380     2.133203
 H    -2.217152    -4.067109     3.154851
 C    -0.552956    -4.431497     0.211108
 H     0.170254    -5.087239    -0.281601
 C    -0.955918    -4.703662     1.516874
 H    -0.549215    -5.567984     2.046956
 C    -3.133971     0.837856     2.544704
 H    -2.091486     1.141429     2.663371
 C    -4.874744    -0.123945     1.135722
 C    -5.374938    -0.746177    -0.134312
 H    -4.913893    -1.730844    -0.299915
 H    -5.124038    -0.133196    -1.012191
 H    -6.465500    -0.871733    -0.098930
 C    -4.034989     0.993564     3.595541
 H    -3.702017     1.424463     4.542185
 C    -5.758671     0.038539     2.207611
 H    -6.797132    -0.279398     2.080875
 C    -5.354056     0.588878     3.422950
 H    -6.076499     0.698565     4.235530
 C    -3.555320     2.366075    -0.862414
 H    -3.648689     2.552788     0.210011
 C    -2.848431     0.930115    -2.694141
 C    -2.230618    -0.313531    -3.248703
 H    -2.841926    -1.196318    -3.015601
 H    -1.240379    -0.494941    -2.810421
 H    -2.118549    -0.239497    -4.338676
 C    -4.018811     3.323817    -1.758137
 H    -4.464333     4.247972    -1.383865
 C    -3.332822     1.905157    -3.574871
 H    -3.246476     1.721377    -4.649254
 C    -3.910065     3.088997    -3.125494
 H    -4.271857     3.827457    -3.844819
