 100
scf done:    -2585.323390
 C     2.157529     2.930171    -1.897688
 H     2.948615     3.485786    -1.384563
 H     2.500881     2.379281    -2.778254
 C     0.820407     3.407823    -1.848336
 H     0.600422     4.327946    -1.297725
 H     0.145542     3.221240    -2.688152
 H     0.655763     0.884847    -1.900196
Rh     1.016344     1.675319    -0.572659
 O     2.525727    -1.285085    -1.370343
 C     4.223116     0.342279    -0.204810
 C     2.212621    -1.096343     1.307910
 O    -0.895306    -0.242006     1.302288
 C    -2.239555     2.079050     0.787479
 C    -1.986766     0.037113    -1.238259
 P    -1.025683     0.910057     0.059077
 P     2.441268    -0.068302    -0.195215
 C     1.349408     2.712700     0.999838
 O     1.496833     3.361166     1.935429
 C     1.427732    -1.826212    -1.959218
 C     0.994693    -1.346352    -3.199458
 H     1.534930    -0.518745    -3.659896
 C     0.758375    -2.898255    -1.362051
 H     1.121127    -3.286540    -0.408944
 C    -0.106463    -1.918919    -3.829445
 H    -0.460664    -1.556548    -4.796087
 C    -0.346054    -3.475406    -1.987253
 H    -0.877602    -4.319365    -1.543403
 C    -0.770266    -2.971238    -3.210041
 F    -1.840513    -3.508705    -3.799680
 H     4.342452     1.150510     0.537433
 H     4.378077     0.817191    -1.186481
 C     5.204035    -0.793758     0.038043
 H     5.045837    -1.201380     1.050774
 H     4.987052    -1.617124    -0.664355
 C     6.677798    -0.395945    -0.093538
 H     6.853094     0.461379     0.583976
 C     7.574052    -1.542460     0.361004
 H     7.355016    -1.839545     1.398626
 H     8.638691    -1.267123     0.306935
 H     7.426843    -2.429556    -0.277469
 C     7.036906     0.042251    -1.509186
 H     8.101139     0.314855    -1.580472
 H     6.453021     0.914898    -1.837923
 H     6.852318    -0.773795    -2.227866
 H     2.935307    -1.928635     1.283102
 H     1.199473    -1.513834     1.212928
 C     2.318211    -0.294080     2.596164
 H     3.285106     0.238633     2.629260
 H     1.535518     0.482934     2.595070
 C     2.184055    -1.127564     3.874207
 H     2.959413    -1.916702     3.839879
 C     2.454760    -0.257599     5.096363
 H     3.452759     0.205743     5.050399
 H     2.396541    -0.842354     6.027421
 H     1.714047     0.556340     5.166340
 C     0.823991    -1.806636     3.984116
 H     0.755516    -2.405944     4.905100
 H     0.620098    -2.478945     3.137633
 H     0.014691    -1.059376     4.007878
 C    -1.899621    -1.046572     1.748637
 C    -2.061037    -2.320387     1.197240
 H    -1.395522    -2.633403     0.392070
 C    -2.734510    -0.630391     2.788918
 H    -2.579364     0.352938     3.235639
 C    -3.073900    -3.159259     1.651637
 H    -3.224990    -4.152978     1.226021
 C    -3.749610    -1.465769     3.248869
 H    -4.415944    -1.160293     4.057566
 C    -3.912982    -2.718017     2.668585
 F    -4.887418    -3.516517     3.103161
 H    -1.773730     2.467831     1.709122
 H    -3.145272     1.526241     1.080816
 C    -2.561218     3.223771    -0.164136
 H    -1.614892     3.697260    -0.471422
 H    -3.012083     2.826057    -1.092061
 C    -3.496646     4.287758     0.414864
 H    -3.034852     4.658525     1.349552
 C    -3.612844     5.463172    -0.548546
 H    -2.626214     5.895822    -0.775630
 H    -4.246044     6.262793    -0.134078
 H    -4.063319     5.143289    -1.503120
 C    -4.872259     3.726912     0.758759
 H    -5.531282     4.510832     1.162782
 H    -4.819768     2.923289     1.508780
 H    -5.360482     3.313211    -0.140073
 H    -1.429089    -0.899652    -1.406165
 H    -1.804157     0.634848    -2.144773
 C    -3.473650    -0.230981    -1.033846
 H    -3.673216    -0.548017     0.000303
 H    -4.045509     0.703060    -1.178179
 C    -4.026885    -1.306630    -1.972594
 H    -3.410985    -2.213622    -1.825121
 C    -5.462351    -1.652360    -1.597895
 H    -5.531383    -1.991984    -0.552342
 H    -5.863646    -2.451103    -2.240642
 H    -6.120623    -0.774262    -1.708557
 C    -3.916357    -0.908926    -3.439427
 H    -4.282958    -1.712389    -4.095664
 H    -2.876550    -0.699037    -3.730396
 H    -4.513374    -0.004264    -3.645419
