 106
scf done:    -2989.459882
 C    -0.373395     1.121899    -4.131066
 H    -0.962603     0.453781    -4.765532
 H    -0.834231     2.097139    -3.954380
 C     1.032807     0.985137    -4.071224
 H     1.532229     0.212862    -4.662925
 H     1.657574     1.852559    -3.843474
 H     0.295321     1.678433    -1.749167
Rh     0.174202     0.180004    -2.255589
 C    -1.966340     1.632472     0.123597
 O    -3.110598    -0.125080    -1.646938
 O    -1.572556    -1.124721     0.169688
 C     1.919797    -1.854180    -0.012047
 O     3.349960     0.162734    -1.326095
 O     1.753629     0.664393     0.670449
 P     1.829345    -0.181968    -0.774812
 P    -1.636101     0.137837    -0.920580
 C    -0.008837    -1.615845    -2.913729
 O    -0.150388    -2.691383    -3.282835
 H    -1.356042     1.496717     1.028129
 H    -1.483253     2.440123    -0.443672
 C    -3.384788     1.964395     0.465896
 C    -3.919161     1.592730     1.704118
 H    -3.286872     1.065257     2.421403
 C    -4.190879     2.665889    -0.456447
 C    -3.651099     3.096362    -1.788206
 H    -3.330253     2.228261    -2.384511
 H    -2.775060     3.756537    -1.676977
 H    -4.410502     3.642435    -2.364031
 C    -5.241695     1.876765     2.032799
 H    -5.639062     1.567138     3.002102
 C    -5.514721     2.951257    -0.105248
 H    -6.143175     3.493302    -0.817184
 C    -6.045942     2.556267     1.121488
 H    -7.085839     2.786960     1.365160
 C    -4.030264    -1.089839    -1.330651
 C    -5.250673    -0.718838    -0.770698
 H    -5.448309     0.333757    -0.566535
 C    -3.757407    -2.434090    -1.587709
 H    -2.799447    -2.715344    -2.028218
 C    -6.187232    -1.700192    -0.455657
 H    -7.137764    -1.398744    -0.006802
 C    -4.701793    -3.401989    -1.259230
 H    -4.473328    -4.453897    -1.451744
 C    -5.932725    -3.057244    -0.685734
 C    -6.955350    -4.107353    -0.360754
 H    -7.642740    -3.769885     0.428333
 H    -6.481989    -5.041862    -0.025162
 H    -7.567094    -4.352044    -1.245354
 C    -1.941891    -1.160580     1.488150
 C    -3.154009    -1.729220     1.877177
 H    -3.834845    -2.122166     1.122671
 C    -1.057421    -0.674593     2.451000
 H    -0.099477    -0.262477     2.126785
 C    -3.484772    -1.768837     3.227899
 H    -4.443437    -2.204892     3.522289
 C    -1.408088    -0.716094     3.798646
 H    -0.712101    -0.321705     4.544572
 C    -2.630068    -1.257108     4.213492
 C    -2.999766    -1.324279     5.666850
 H    -4.070653    -1.123878     5.819605
 H    -2.428639    -0.598175     6.262686
 H    -2.794418    -2.325221     6.081765
 H     0.943954    -1.936493     0.494681
 H     1.872723    -2.541323    -0.869019
 C     3.060469    -2.165461     0.907315
 C     2.988130    -1.788430     2.252601
 H     2.078560    -1.306626     2.617399
 C     4.218711    -2.810680     0.427685
 C     4.317058    -3.284382    -0.993369
 H     4.095814    -2.481951    -1.711936
 H     3.607273    -4.105355    -1.191296
 H     5.327044    -3.655302    -1.213037
 C     4.054736    -2.004673     3.119000
 H     3.980577    -1.698012     4.165011
 C     5.282821    -3.015047     1.310779
 H     6.189572    -3.499287     0.938849
 C     5.213396    -2.612446     2.641903
 H     6.063193    -2.781365     3.307682
 C     4.589278     0.150666    -0.730742
 C     4.816525     0.521848     0.595042
 H     3.988026     0.817744     1.234331
 C     5.660589    -0.215143    -1.542952
 H     5.466153    -0.471676    -2.585952
 C     6.109266     0.470293     1.103265
 H     6.270386     0.741631     2.150075
 C     6.948417    -0.257667    -1.015984
 H     7.778737    -0.556823    -1.661762
 C     7.197759     0.069868     0.319975
 C     8.574850    -0.025232     0.909023
 H     8.653459    -0.889429     1.589973
 H     8.826752     0.871422     1.495920
 H     9.340686    -0.146560     0.129814
 C     1.616502     2.020511     0.778070
 C     1.007971     2.509898     1.935981
 H     0.672543     1.806493     2.700082
 C     2.078241     2.911512    -0.190534
 H     2.582746     2.539098    -1.082696
 C     0.834182     3.878291     2.104096
 H     0.349604     4.244474     3.013487
 C     1.891044     4.280592    -0.005516
 H     2.252494     4.968481    -0.774583
 C     1.261529     4.792698     1.132036
 C     1.043495     6.266912     1.313076
 H     1.407692     6.610464     2.293764
 H    -0.027828     6.520838     1.259099
 H     1.562191     6.847892     0.537734
