 108
scf done:    -2767.250575
 C    -0.226669    -4.145387     0.725416
 H     0.176875    -4.825039    -0.032070
 H     0.351200    -4.122004     1.653949
 C    -1.626656    -3.896658     0.765948
 H    -2.282982    -4.392003     0.042240
 H    -2.107030    -3.683414     1.725901
 H    -0.458857    -1.755412     1.490536
Rh    -0.621925    -2.176367    -0.036135
 C     1.396552     0.508832     0.877734
 C     2.819977    -2.079869     0.437445
 C     1.859596    -0.485234    -1.898102
 C    -1.943758     0.904270    -1.178250
 C    -3.858225    -1.327276    -0.973136
 C    -3.007938     0.112027     1.417117
 P    -2.321929    -0.617997    -0.150608
 P     1.387568    -1.036692    -0.167607
 C    -0.716783    -2.699522    -1.865977
 O    -0.743911    -2.987849    -2.978959
 H     0.620846     0.295423     1.623200
 H     1.003221     1.303405     0.227033
 C     2.641768     0.966097     1.570469
 C     3.462937     1.965814     1.035051
 H     3.203906     2.419839     0.077951
 C     2.985768     0.421469     2.816419
 H     2.332974    -0.331043     3.266230
 C     4.603374     2.391322     1.713450
 H     5.226428     3.175324     1.275252
 C     4.128386     0.841436     3.494335
 H     4.377577     0.400966     4.462862
 C     4.945863     1.827917     2.942586
 H     5.840306     2.162267     3.473675
 H     2.843810    -1.928510     1.526911
 H     2.460287    -3.105291     0.274287
 C     4.179637    -1.911330    -0.168658
 C     4.508142    -2.610265    -1.339396
 H     3.775805    -3.288070    -1.787294
 C     5.149324    -1.082416     0.405111
 H     4.911952    -0.541014     1.322403
 C     5.760338    -2.455173    -1.928152
 H     6.001584    -2.999155    -2.844625
 C     6.416752    -0.925207    -0.165544
 C     7.443819    -0.054985     0.498373
 H     6.974658     0.817773     0.974720
 H     7.974863    -0.610070     1.289689
 H     8.198987     0.298578    -0.218365
 C     6.708172    -1.613513    -1.348815
 H     7.690528    -1.495887    -1.814698
 H     2.440420    -1.315281    -2.327271
 H     0.901728    -0.462629    -2.435966
 C     2.570185     0.820215    -2.083290
 C     1.833541     2.007032    -2.204421
 H     0.740937     1.970707    -2.188623
 C     3.965079     0.892476    -2.149887
 H     4.549581    -0.025897    -2.078469
 C     2.483029     3.228883    -2.363246
 H     1.897872     4.146474    -2.462242
 C     4.633716     2.111201    -2.300712
 C     6.133514     2.156995    -2.308828
 H     6.560027     1.229585    -2.716502
 H     6.511657     3.006470    -2.895964
 H     6.521348     2.263851    -1.281974
 C     3.874894     3.283055    -2.404845
 H     4.379502     4.245138    -2.529625
 H    -1.362462     0.515154    -2.027287
 H    -1.243584     1.484737    -0.556965
 C    -3.082556     1.739018    -1.672096
 C    -3.681988     2.730521    -0.882539
 H    -3.292628     2.938846     0.115366
 C    -3.600278     1.523735    -2.958074
 H    -3.132886     0.774308    -3.603266
 C    -4.770836     3.462312    -1.350567
 H    -5.219564     4.228698    -0.714004
 C    -4.690514     2.252158    -3.429387
 H    -5.074635     2.062361    -4.434424
 C    -5.285620     3.222076    -2.623906
 H    -6.141079     3.794270    -2.989865
 H    -3.882862    -0.928384    -1.997964
 H    -3.650929    -2.403070    -1.043526
 C    -5.163935    -1.096683    -0.276162
 C    -5.593453    -1.989105     0.716042
 H    -4.988934    -2.872002     0.943808
 C    -5.958689     0.015726    -0.565011
 H    -5.641528     0.708581    -1.347252
 C    -6.779718    -1.755872     1.404560
 H    -7.109140    -2.458432     2.174119
 C    -7.152646     0.266794     0.120709
 C    -7.962872     1.489003    -0.201669
 H    -7.462254     2.399576     0.166711
 H    -8.084753     1.612213    -1.288491
 H    -8.961529     1.446131     0.255397
 C    -7.553094    -0.632879     1.113356
 H    -8.484293    -0.456008     1.658501
 H    -3.755307     0.873440     1.146262
 H    -3.561182    -0.711199     1.891103
 C    -1.970351     0.643804     2.357208
 C    -1.470012    -0.168606     3.381924
 H    -1.861009    -1.180985     3.502483
 C    -1.450042     1.937687     2.227952
 H    -1.828739     2.594380     1.441091
 C    -0.484674     0.307918     4.243378
 H    -0.110370    -0.334498     5.044454
 C    -0.441691     2.424414     3.065670
 C     0.163858     3.778746     2.842394
 H    -0.462893     4.402274     2.188922
 H     0.314250     4.316836     3.790252
 H     1.153895     3.680234     2.365317
 C     0.031031     1.591554     4.085618
 H     0.820175     1.949948     4.751533
