 122
scf done:    -3447.088079
 C    -0.561897     1.001677    -3.733367
 H    -0.932627     0.213551    -4.396328
 H    -1.239669     1.847930    -3.622238
 C     0.832428     1.190381    -3.566821
 H     1.537127     0.547934    -4.102670
 H     1.231324     2.180196    -3.327707
 H    -0.188867     1.751157    -1.340252
Rh     0.052233     0.253558    -1.803700
 C    -2.047236     1.325170     0.741506
 C    -3.499811    -0.235676    -1.157387
 C    -1.568911    -1.632089     0.621818
 C     2.269888    -1.469757     0.211248
 C     3.491963     0.828643    -1.035385
 C     1.561356     1.281247     1.176358
 P     1.876738     0.252885    -0.320315
 P    -1.803365    -0.108777    -0.400717
 C     0.375069    -1.491820    -2.480160
 O     0.644228    -2.504100    -2.962529
 H    -1.158423     1.351285     1.387966
 H    -1.934813     2.164829     0.045716
 C    -3.307819     1.486648     1.541805
 C    -4.132414     0.408605     1.878872
 H    -3.871743    -0.593564     1.536038
 C    -3.666745     2.778424     1.984355
 C    -2.821984     3.971389     1.641626
 H    -2.786756     4.136195     0.551298
 H    -1.779968     3.837781     1.971407
 H    -3.218657     4.884817     2.106731
 C    -5.283555     0.584446     2.642703
 H    -5.908713    -0.278442     2.886679
 C    -4.824160     2.939734     2.753748
 H    -5.094153     3.943029     3.096370
 C    -5.633456     1.856551     3.086748
 H    -6.534383     2.008710     3.686342
 C    -4.424214    -1.291746    -1.016769
 O    -4.154134    -2.229922    -0.088004
 C    -4.995452    -3.330909     0.076110
 H    -4.526813    -3.961090     0.843748
 H    -6.003128    -3.033758     0.417027
 H    -5.095737    -3.916758    -0.854706
 C    -3.894712     0.845722    -1.975355
 O    -3.082554     1.918976    -1.962237
 C    -3.399317     3.050428    -2.717095
 H    -2.592097     3.773512    -2.540846
 H    -4.359400     3.495659    -2.401779
 H    -3.442028     2.827195    -3.797169
 C    -5.074519     0.815505    -2.727224
 H    -5.345759     1.651249    -3.370404
 C    -5.604142    -1.335187    -1.772070
 H    -6.295631    -2.170074    -1.668342
 C    -5.908869    -0.290234    -2.633439
 H    -6.829306    -0.325033    -3.220929
 C    -1.342042    -1.667477     2.008692
 O    -1.433208    -0.507960     2.688194
 C    -1.781298    -0.514438     4.042136
 H    -2.016102     0.525249     4.304517
 H    -2.672002    -1.139108     4.224461
 H    -0.957675    -0.866322     4.686742
 C    -1.497141    -2.858450    -0.076044
 O    -1.794742    -2.789084    -1.383939
 C    -1.894460    -3.958246    -2.144124
 H    -2.214647    -3.647865    -3.146250
 H    -2.642820    -4.650295    -1.720046
 H    -0.923852    -4.474358    -2.228719
 C    -1.181752    -4.057764     0.566053
 H    -1.121009    -4.989894     0.005942
 C    -1.037516    -2.870390     2.664745
 H    -0.858879    -2.873718     3.739560
 C    -0.950963    -4.049334     1.940094
 H    -0.701974    -4.982110     2.451687
 H     1.340962    -1.842393     0.670084
 H     2.344187    -1.981029    -0.760576
 C     3.460445    -1.838232     1.049585
 C     4.323542    -0.895687     1.614051
 H     4.139525     0.167465     1.455707
 C     3.694561    -3.209803     1.289807
 C     2.783977    -4.252504     0.709926
 H     2.753172    -4.198128    -0.390654
 H     1.744487    -4.117151     1.050001
 H     3.108650    -5.264292     0.990588
 C     5.402726    -1.285753     2.404208
 H     6.061000    -0.525936     2.833222
 C     4.779826    -3.585527     2.088834
 H     4.955104    -4.649346     2.274643
 C     5.634764    -2.637090     2.645643
 H     6.477740    -2.954888     3.264344
 C     4.302530     1.868091    -0.533204
 O     4.046230     2.293721     0.719033
 C     4.604971     3.483116     1.190728
 H     4.123548     3.686917     2.156410
 H     5.695499     3.397997     1.342961
 H     4.404089     4.324396     0.504922
 C     3.906722     0.232066    -2.247362
 O     3.226626    -0.862077    -2.638562
 C     3.569938    -1.505514    -3.834272
 H     2.877918    -2.349128    -3.937194
 H     4.607264    -1.881315    -3.807812
 H     3.450488    -0.837086    -4.704639
 C     4.979500     0.740519    -2.989254
 H     5.267126     0.282673    -3.934055
 C     5.368315     2.392361    -1.275197
 H     5.966766     3.211200    -0.877947
 C     5.685669     1.833783    -2.505473
 H     6.518827     2.238238    -3.085009
 C     1.341022     2.659277     0.963392
 O     1.583676     3.099329    -0.283066
 C     1.041612     4.313998    -0.711834
 H     1.204103     4.361048    -1.796017
 H    -0.041703     4.364824    -0.508639
 H     1.539113     5.179335    -0.238368
 C     1.392011     0.792068     2.483259
 O     1.565939    -0.527312     2.684809
 C     1.967058    -0.999269     3.939601
 H     2.288583    -2.038429     3.789913
 H     1.145314    -0.981767     4.676074
 H     2.817415    -0.418314     4.333447
 C     1.025158     1.647554     3.533273
 H     0.897455     1.248992     4.539288
 C     0.948873     3.511137     1.998153
 H     0.785475     4.572068     1.810641
 C     0.797645     2.992651     3.282329
 H     0.496397     3.652101     4.099774
