  84
scf done:    -5582.402582
 C     0.789654    -3.147378    -3.513142
 H     1.483837    -2.894856    -4.319148
 H     1.134200    -3.944645    -2.849921
 C    -0.589999    -2.902075    -3.661232
 H    -0.970749    -2.462122    -4.587022
 H    -1.318352    -3.501624    -3.109631
 H    -0.095041    -2.433889    -1.203726
Rh     0.251425    -1.386272    -2.350096
 O     2.390746    -1.864002     0.225737
 O     3.513958    -1.020999    -1.820093
 O     2.030447     0.584215    -0.433587
 O    -1.273000    -0.186067     0.272010
 O    -1.869214     1.142736    -1.848617
 O    -2.920229    -1.145490    -1.386800
 P    -1.460365    -0.379198    -1.353505
 P     2.045184    -0.931527    -1.104976
 C     0.589693    -0.118587    -3.768806
 O     0.771401     0.649376    -4.592796
 C     1.424435    -2.304231     1.094648
 C     1.055277    -3.648215     1.058951
 H     1.516810    -4.306020     0.320838
 C     0.841202    -1.435072     2.014933
 H     1.116497    -0.379632     2.020933
 C     0.110063    -4.132101     1.957926
 H    -0.184638    -5.182493     1.945878
 C    -0.107913    -1.913306     2.912897
 H    -0.577756    -1.240061     3.631287
 C    -0.464635    -3.259775     2.882080
Cl    -1.634580    -3.864056     4.011751
 C     4.756114    -0.818887    -1.256767
 C     5.308130    -1.756104    -0.386764
 H     4.753039    -2.663509    -0.151077
 C     5.456932     0.336726    -1.595237
 H     5.009871     1.045090    -2.293869
 C     6.543759    -1.500334     0.201229
 H     6.984037    -2.213662     0.899652
 C     6.688066     0.596748    -1.005714
 H     7.232157     1.514656    -1.232062
 C     7.218474    -0.317336    -0.095124
Cl     8.727228     0.026821     0.680882
 C     3.029773     1.291298     0.189915
 C     3.272554     2.582534    -0.276399
 H     2.672376     2.966573    -1.103583
 C     3.768660     0.774727     1.255317
 H     3.575939    -0.233918     1.618420
 C     4.289308     3.346596     0.286919
 H     4.499104     4.352668    -0.079546
 C     4.795731     1.531745     1.808697
 H     5.407392     1.125872     2.615587
 C     5.059951     2.809389     1.316931
Cl     6.365403     3.730316     1.982020
 C    -1.480740     0.913641     1.055866
 C    -2.518709     0.904665     1.987184
 H    -3.174427     0.036156     2.054857
 C    -0.620720     2.008237     0.959655
 H     0.195082     1.980617     0.236826
 C    -2.712926     2.009138     2.811514
 H    -3.524929     2.018885     3.540146
 C    -0.816868     3.114519     1.781038
 H    -0.154517     3.978936     1.714121
 C    -1.867099     3.113081     2.699688
Cl    -2.117439     4.491634     3.717182
 C    -3.133858     1.673493    -1.927561
 C    -3.569321     2.589084    -0.971267
 H    -2.908125     2.872284    -0.152398
 C    -3.960941     1.316494    -2.992653
 H    -3.599488     0.604519    -3.736183
 C    -4.848303     3.130068    -1.065172
 H    -5.202699     3.842512    -0.318861
 C    -5.240561     1.854173    -3.088170
 H    -5.900658     1.576905    -3.911361
 C    -5.682365     2.753886    -2.117327
Cl    -7.279767     3.413055    -2.224304
 C    -3.743522    -1.376342    -0.311058
 C    -4.949594    -0.686735    -0.205948
 H    -5.224661     0.039782    -0.970925
 C    -3.375401    -2.313673     0.654475
 H    -2.423365    -2.839277     0.562241
 C    -5.787110    -0.923080     0.880938
 H    -6.731851    -0.386125     0.977991
 C    -4.206867    -2.546696     1.745318
 H    -3.913350    -3.257717     2.518341
 C    -5.407612    -1.844618     1.856129
Cl    -6.436801    -2.120420     3.222086
