  92
scf done:    -3600.858949
 C     0.972245    -2.376090     3.745246
 H     1.146220    -3.437804     3.544454
 H     1.839929    -1.852529     4.156646
 C    -0.336508    -1.932799     4.083986
 H    -1.152616    -2.660017     4.144690
 H    -0.458373    -1.073176     4.748892
 H     0.735502    -0.032995     2.789289
Rh     0.122789    -1.319332     2.074644
 O     1.983205     0.792024     0.438961
 C     3.475827    -1.491067     1.088026
 C     1.581821    -1.339154    -1.182621
 O    -1.639095    -0.067570    -0.399342
 C    -3.124624    -0.021918     2.005552
 C    -1.005429     1.943468     1.349100
 P    -1.425978     0.133608     1.260421
 P     1.792373    -0.875085     0.598420
 C    -0.727142    -2.885793     1.365786
 O    -1.328657    -3.805907     1.040569
 C     3.059201     1.507348     0.007023
 C     3.678465     2.361632     0.921100
 H     3.294236     2.401935     1.942038
 C     3.505612     1.463473    -1.315877
 H     3.003962     0.825332    -2.042574
 C     4.775444     3.124803     0.536288
 H     5.275334     3.782953     1.248739
 C     4.610225     2.214408    -1.701571
 H     4.986254     2.160905    -2.724027
 C     5.249737     3.030598    -0.770586
Cl     6.660595     3.922183    -1.238911
 H     3.291657    -2.568624     1.234614
 H     3.618523    -1.080750     2.099708
 C     4.678436    -1.243133     0.225055
 C     5.637034    -0.295410     0.605657
 H     5.509914     0.243486     1.546954
 C     4.881851    -1.942428    -0.972752
 H     4.181057    -2.723995    -1.275610
 C     6.731266    -0.012473    -0.205669
 H     7.450050     0.751018     0.100567
 C     5.978257    -1.663585    -1.786995
 H     6.113437    -2.218801    -2.718388
 C     6.900612    -0.688402    -1.413349
 H     7.754990    -0.462231    -2.055344
 H     2.552248    -1.265475    -1.698113
 H     0.928146    -0.543160    -1.569410
 C     0.933219    -2.670854    -1.413746
 C    -0.300497    -2.734571    -2.071633
 H    -0.774461    -1.809369    -2.406266
 C     1.516608    -3.868970    -0.980038
 H     2.473406    -3.853628    -0.452883
 C    -0.932386    -3.955198    -2.293989
 H    -1.897964    -3.976230    -2.805125
 C     0.886109    -5.091327    -1.199525
 H     1.355440    -6.012716    -0.846924
 C    -0.341913    -5.139032    -1.856678
 H    -0.839484    -6.097231    -2.022292
 C    -2.777015    -0.287413    -1.107045
 C    -3.236908     0.695184    -1.986729
 H    -2.697823     1.639715    -2.059595
 C    -3.446932    -1.511538    -1.014467
 H    -3.054457    -2.295817    -0.364416
 C    -4.381584     0.470014    -2.743562
 H    -4.752625     1.236949    -3.425230
 C    -4.599618    -1.734888    -1.763735
 H    -5.134098    -2.683339    -1.690661
 C    -5.067346    -0.738765    -2.619968
Cl    -6.505908    -1.009974    -3.548246
 H    -2.872089    -0.232711     3.056546
 H    -3.535178    -0.961100     1.603734
 C    -4.112121     1.101176     1.917652
 C    -5.035825     1.195834     0.869332
 H    -5.062175     0.423330     0.099743
 C    -4.132304     2.089310     2.912147
 H    -3.443744     2.013234     3.758781
 C    -5.923443     2.266139     0.797115
 H    -6.630041     2.321546    -0.034371
 C    -5.021921     3.159772     2.843973
 H    -5.018609     3.919065     3.629616
 C    -5.915445     3.257563     1.777977
 H    -6.612474     4.096718     1.719429
 H     0.079882     1.944521     1.515334
 H    -1.488101     2.329880     2.259706
 C    -1.346253     2.769011     0.144912
 C    -2.519498     3.526990     0.067802
 H    -3.215929     3.535217     0.907410
 C    -0.467119     2.782388    -0.947518
 H     0.453115     2.197853    -0.890707
 C    -2.811924     4.270534    -1.074821
 H    -3.735746     4.852724    -1.113874
 C    -0.756791     3.526531    -2.087924
 H    -0.056133     3.526237    -2.926501
 C    -1.935014     4.271832    -2.158456
 H    -2.164340     4.856061    -3.052869
