  76
scf done:    -2991.620567
 C    -3.699851    -0.830806    -2.176194
 H    -4.577163    -1.333284    -1.757296
 H    -3.898894     0.180426    -2.542750
 C    -2.669032    -1.603215    -2.774477
 H    -2.765981    -2.692686    -2.811705
 H    -2.085055    -1.181848    -3.597877
 H    -1.504425     0.371246    -1.709598
Rh    -1.993488    -0.873649    -0.858216
 O    -2.225140     2.325856     0.315983
 C    -4.257412     0.883821     1.162061
 C    -1.610865     0.626620     2.329472
 O     0.899273    -0.432789     0.647598
 C     0.896488    -2.891813    -0.553746
 C     1.222126    -0.459672    -2.107482
 P     0.247477    -1.182507    -0.727214
 P    -2.493360     0.700708     0.719906
 C    -2.534455    -2.445213     0.085611
 O    -2.829349    -3.417341     0.620976
 C    -1.055194     2.739582    -0.237981
 C    -0.933961     2.837603    -1.627270
 H    -1.791791     2.586539    -2.251407
 C     0.023077     3.095389     0.575824
 H    -0.088608     3.051856     1.659812
 C     0.271716     3.231211    -2.200240
 H     0.381173     3.286893    -3.284409
 C     1.227970     3.500126     0.010304
 H     2.074715     3.771748     0.642557
 C     1.354491     3.536979    -1.376877
Cl     2.889114     3.942115    -2.082899
 H    -4.769759     1.051037     0.199642
 H    -4.576571    -0.119962     1.494171
 C    -4.627703     1.957270     2.175801
 H    -4.197040     2.917820     1.850562
 H    -4.163911     1.724851     3.149117
 C    -6.132339     2.093280     2.353871
 H    -6.622533     2.365176     1.405546
 H    -6.583049     1.148690     2.698407
 H    -6.380965     2.870590     3.092308
 H    -0.553458     0.793553     2.072038
 H    -1.946272     1.461567     2.966560
 C    -1.735057    -0.712857     3.041182
 H    -1.418962    -1.508300     2.347719
 H    -2.791208    -0.921715     3.286293
 C    -0.890179    -0.778295     4.304216
 H     0.174816    -0.619040     4.070605
 H    -1.188526    -0.005473     5.030440
 H    -0.983933    -1.756308     4.800336
 C     2.199167    -0.432035     1.050959
 C     3.069791     0.576041     0.627681
 H     2.707819     1.337822    -0.063045
 C     2.649759    -1.401394     1.950541
 H     1.956433    -2.172078     2.292271
 C     4.383754     0.605131     1.082966
 H     5.067452     1.387946     0.750494
 C     3.963768    -1.377104     2.409778
 H     4.322633    -2.131667     3.111524
 C     4.827823    -0.375147     1.970324
Cl     6.464585    -0.342460     2.538016
 H     1.994612    -2.874141    -0.453695
 H     0.489740    -3.271413     0.399272
 C     0.463360    -3.798844    -1.700601
 H     0.860885    -3.409115    -2.653454
 H    -0.633487    -3.752849    -1.797782
 C     0.913749    -5.238437    -1.509475
 H     2.010802    -5.311261    -1.438706
 H     0.492666    -5.665477    -0.585410
 H     0.589740    -5.873557    -2.347656
 H     0.592648    -0.627492    -2.997498
 H     1.171426     0.628655    -1.929624
 C     2.652128    -0.918061    -2.368872
 H     2.647398    -1.970962    -2.696307
 H     3.243137    -0.893267    -1.441081
 C     3.333476    -0.056610    -3.422104
 H     2.780720    -0.079131    -4.375115
 H     3.387809     0.995486    -3.099032
 H     4.359414    -0.400929    -3.621947
