 100
scf done:    -2462.622871
 C     0.797077    -4.385759     0.409188
 H     1.410849    -4.894142    -0.341276
 H     1.245044    -4.359767     1.406826
 C    -0.618139    -4.394650     0.277564
 H    -1.077664    -4.908344    -0.572927
 H    -1.240834    -4.380002     1.177435
 H    -0.045843    -2.177831     1.354294
Rh     0.125056    -2.439951    -0.215188
 C     1.935310     0.312348     1.198795
 C     3.509216    -2.007539     0.458201
 C     2.520051    -0.176541    -1.611015
 C    -1.732110     0.045842    -1.845154
 C    -3.329527    -1.974448    -0.386352
 C    -1.835950     0.156981     1.097776
 P    -1.707281    -1.029854    -0.343101
 P     1.974271    -1.057334    -0.034934
 C     0.281386    -2.760352    -2.080022
 O     0.362462    -2.910366    -3.217739
 H     2.888036     0.863029     1.156204
 H     1.174228     1.019744     0.830065
 C     1.618772    -0.105898     2.626489
 H     2.417275    -0.763825     3.010464
 H     0.709308    -0.728607     2.635237
 C     1.452287     1.091201     3.549822
 H     2.363059     1.711313     3.572323
 H     0.625101     1.737450     3.213933
 H     1.233154     0.777712     4.581764
 H     3.268409    -2.424749     1.448283
 H     3.543373    -2.861337    -0.234632
 C     4.798983    -1.252062     0.462353
 C     5.664251    -1.308898    -0.637995
 H     5.426652    -1.967352    -1.477971
 C     5.155408    -0.430452     1.541132
 H     4.509045    -0.399964     2.422150
 C     6.828392    -0.543330    -0.664265
 H     7.494859    -0.599021    -1.528326
 C     6.311970     0.352824     1.528624
 C     6.636873     1.263445     2.676864
 H     6.373591     2.306462     2.433848
 H     6.079843     0.985417     3.582692
 H     7.710863     1.246968     2.914828
 C     7.146764     0.289568     0.404813
 H     8.060791     0.889173     0.375886
 H     3.468315    -0.641855    -1.918268
 H     1.769988    -0.433592    -2.370451
 C     2.677250     1.311073    -1.520360
 C     1.637983     2.162228    -1.909786
 H     0.730295     1.740536    -2.347868
 C     3.848777     1.882932    -1.006758
 H     4.675769     1.231093    -0.715836
 C     1.760482     3.543229    -1.760508
 H     0.941465     4.196105    -2.073819
 C     3.987150     3.263233    -0.846436
 C     5.243077     3.841478    -0.260337
 H     6.046220     3.091958    -0.224229
 H     5.600662     4.704688    -0.842131
 H     5.069561     4.196323     0.769413
 C     2.921762     4.091374    -1.224906
 H     3.010677     5.175129    -1.108527
 H    -0.938468     0.783046    -1.642545
 H    -1.340750    -0.587661    -2.658454
 C    -2.998971     0.757217    -2.301090
 H    -3.495434     1.245267    -1.449913
 H    -3.710063     0.011154    -2.692333
 C    -2.705920     1.790478    -3.378424
 H    -2.049631     2.583913    -2.986546
 H    -2.202822     1.337049    -4.248010
 H    -3.628299     2.272027    -3.737367
 H    -3.521990    -2.163980    -1.454055
 H    -3.066518    -2.944378     0.057588
 C    -4.535875    -1.411417     0.300485
 C    -4.714550    -1.623189     1.676324
 H    -3.982853    -2.219551     2.228581
 C    -5.509107    -0.680768    -0.385787
 H    -5.395904    -0.523237    -1.460629
 C    -5.818279    -1.092280     2.336255
 H    -5.944893    -1.263071     3.408049
 C    -6.626375    -0.139070     0.259282
 C    -7.638798     0.648215    -0.520969
 H    -7.161151     1.480717    -1.061032
 H    -8.138401     0.017806    -1.273863
 H    -8.415062     1.069580     0.132882
 C    -6.767017    -0.348521     1.634675
 H    -7.632168     0.066436     2.158896
 H    -2.414732    -0.365888     1.872809
 H    -0.805318     0.216671     1.466928
 C    -2.371514     1.534069     0.849302
 C    -1.536581     2.526447     0.321045
 H    -0.482409     2.311752     0.126383
 C    -3.705484     1.860726     1.123141
 H    -4.360492     1.101634     1.555736
 C    -2.040647     3.792924     0.033177
 H    -1.377961     4.555414    -0.384228
 C    -4.225298     3.127809     0.846044
 C    -5.657813     3.455959     1.154877
 H    -6.196889     2.573282     1.524913
 H    -5.728354     4.244084     1.921844
 H    -6.184461     3.828481     0.262023
 C    -3.377303     4.090155     0.281827
 H    -3.766902     5.085838     0.051491
