  80
scf done:    -4287.017519
 C    -1.680602    -3.902141    -0.185318
 H    -1.225962    -4.821594    -0.565404
 H    -1.837312    -3.889727     0.896514
 C    -2.522976    -3.132841    -1.020243
 H    -2.718007    -3.458776    -2.045781
 H    -3.315644    -2.521231    -0.581745
 H    -1.316980    -1.446861     0.407882
Rh    -0.610179    -2.125777    -0.835382
 C     2.405485    -3.366013     0.721050
 O     2.251174    -0.774153    -0.065682
 O     1.035797    -1.641162     2.078763
 C     0.140094     0.541159    -3.058774
 O    -2.249212     0.646084    -1.955699
 O    -0.243029     1.014311    -0.374357
 P    -0.765848    -0.012341    -1.574463
 P     1.229432    -1.996586     0.456799
 C     0.118752    -2.921912    -2.426174
 O     0.521858    -3.365196    -3.403076
 H     3.143937    -3.052125     1.476814
 H     1.806199    -4.174259     1.172444
 C     3.086004    -3.834898    -0.557910
 H     3.635721    -2.992433    -1.010126
 H     2.320789    -4.130155    -1.293898
 C     4.039352    -4.994136    -0.314601
 H     4.838418    -4.712204     0.389097
 H     3.511872    -5.862039     0.111812
 H     4.517199    -5.320266    -1.250360
 C     3.500918    -0.450615     0.371252
 C     4.435513    -0.093412    -0.605189
 H     4.139337    -0.135283    -1.655345
 C     3.854777    -0.403792     1.723169
 H     3.123677    -0.674002     2.485129
 C     5.715927     0.306703    -0.240483
 H     6.448900     0.587017    -0.998627
 C     5.140272    -0.010724     2.088138
 H     5.425448     0.028019     3.140691
 C     6.065983     0.344294     1.109266
Cl     7.660652     0.838258     1.569885
 C     0.035761    -0.836378     2.553919
 C    -1.113234    -1.420399     3.085407
 H    -1.199840    -2.507913     3.094243
 C     0.172823     0.549912     2.524559
 H     1.070254     0.996021     2.094343
 C    -2.135772    -0.618599     3.581078
 H    -3.042944    -1.063835     3.992170
 C    -0.847887     1.358188     3.015650
 H    -0.759859     2.445175     2.980855
 C    -1.999575     0.768326     3.534629
Cl    -3.293221     1.772108     4.108563
 H     1.198168     0.545463    -2.740396
 H     0.047098    -0.304616    -3.761739
 C    -0.250110     1.843816    -3.747822
 H    -0.141630     2.688658    -3.052113
 H    -1.318683     1.800736    -4.008391
 C     0.588936     2.096291    -4.990753
 H     1.658860     2.179667    -4.740873
 H     0.482433     1.279492    -5.722698
 H     0.290782     3.031478    -5.487934
 C    -3.377693     0.387018    -1.227561
 C    -3.401688     0.502881     0.164075
 H    -2.498870     0.781215     0.709072
 C    -4.530727     0.021480    -1.921863
 H    -4.486210    -0.068334    -3.008516
 C    -4.581376     0.250396     0.859095
 H    -4.610198     0.355086     1.944559
 C    -5.710239    -0.230902    -1.229796
 H    -6.617361    -0.521008    -1.762123
 C    -5.729063    -0.118141     0.160757
Cl    -7.196877    -0.434401     1.027027
 C     0.069489     2.335655    -0.487922
 C    -0.930285     3.310159    -0.488707
 H    -1.977655     3.009003    -0.438225
 C     1.415230     2.702789    -0.540005
 H     2.177550     1.922013    -0.516935
 C    -0.581781     4.655017    -0.568921
 H    -1.351462     5.428344    -0.576503
 C     1.765084     4.047300    -0.619456
 H     2.813011     4.348055    -0.663134
 C     0.763618     5.017879    -0.639535
Cl     1.195004     6.692262    -0.742137
