  66
scf done:    -2065.925990
 C    -0.996532    -3.721069    -0.518587
 H    -1.268279    -4.222405     0.414387
 H    -1.836895    -3.551635    -1.196055
 C     0.313921    -3.850233    -1.037393
 H     1.049199    -4.462676    -0.506522
 H     0.475699    -3.787765    -2.116732
 H    -0.438807    -1.493841    -1.619321
Rh     0.056891    -1.873971    -0.151969
 C    -2.106774     0.780783    -0.817243
 O    -3.005930    -1.235096     0.886640
 O    -1.403125     0.605102     1.684363
 C     2.180268     0.755973     0.819026
 O     3.142949    -0.753583    -1.153507
 O     1.223987     0.894124    -1.587573
 P     1.664806    -0.326600    -0.567774
 P    -1.622063    -0.471051     0.440319
 C     0.734481    -2.451634     1.539798
 O     1.167391    -2.832882     2.531411
 H    -1.203501     1.404186    -0.916176
 H    -2.193301     0.210687    -1.752098
 C    -3.328296     1.593591    -0.524917
 C    -3.226961     2.735736     0.277401
 H    -2.244895     3.021803     0.660520
 C    -4.590077     1.201000    -1.017141
 C    -4.744474    -0.027768    -1.867404
 H    -4.354095    -0.922538    -1.356808
 H    -4.193996     0.064399    -2.818360
 H    -5.800167    -0.207326    -2.112675
 C    -4.351280     3.487031     0.606726
 H    -4.251217     4.373536     1.237445
 C    -5.708488     1.971161    -0.681855
 H    -6.688966     1.671201    -1.062328
 C    -5.600114     3.101836     0.124580
 H    -6.491633     3.682780     0.372649
 C    -4.058146    -0.662210     1.644504
 H    -3.830972     0.367352     1.955775
 H    -4.981083    -0.652257     1.047304
 H    -4.218446    -1.285618     2.538021
 C    -0.934427     0.141937     2.929587
 H    -1.510974    -0.726451     3.290258
 H     0.129023    -0.142186     2.878575
 H    -1.047462     0.964048     3.649681
 H     1.251718     1.275687     1.104273
 H     2.432321     0.074417     1.644960
 C     3.281099     1.729422     0.521936
 C     2.964502     2.964102    -0.054479
 H     1.917995     3.188902    -0.272161
 C     4.627816     1.417006     0.795377
 C     5.015875     0.103559     1.410391
 H     4.674693    -0.735741     0.786677
 H     4.569891    -0.026886     2.410654
 H     6.106057     0.028074     1.523290
 C     3.954286     3.892348    -0.362734
 H     3.684248     4.850686    -0.812668
 C     5.609484     2.363320     0.483567
 H     6.655437     2.126571     0.697846
 C     5.286026     3.589922    -0.091171
 H     6.075377     4.308520    -0.324768
 C     3.363033    -1.977996    -1.818212
 H     2.574498    -2.706198    -1.568774
 H     3.382490    -1.824546    -2.909603
 H     4.339833    -2.370792    -1.500187
 C     1.011395     0.635010    -2.952887
 H     1.963375     0.417402    -3.465158
 H     0.319298    -0.214060    -3.098082
 H     0.570406     1.537865    -3.397325
