  86
scf done:    -2079.413018
 C     1.476895     2.955607    -0.102491
 H     1.889542     3.271520     0.860695
 H     2.231467     2.776110    -0.874659
 C     0.185520     3.380628    -0.480961
 H    -0.387758     4.015258     0.199008
 H    -0.057382     3.520559    -1.537498
 H     0.477791     1.009193    -1.438472
Rh     0.105373     1.281842     0.088965
 C     2.920721    -0.276621    -1.105293
 C     3.112394     0.329369     1.766766
 C     1.589295    -2.012983     0.841828
 C    -2.475427    -1.102042     0.234685
 C    -3.477843     1.595545    -0.132674
 C    -2.195406     0.200937    -2.395892
 P    -1.989071     0.520943    -0.572149
 P     1.876469    -0.209265     0.448484
 C    -0.543599     1.483636     1.862275
 O    -1.060834     1.534836     2.891102
 H     2.315386    -0.864813    -1.811401
 H     2.893216     0.751903    -1.484036
 C     4.321774    -0.799379    -1.020643
 C     4.554963    -2.181006    -0.993141
 H     3.706532    -2.862965    -1.082828
 C     5.426431     0.077917    -0.953096
 C     5.267335     1.567382    -1.081605
 H     4.614372     1.997046    -0.306743
 H     4.822638     1.840170    -2.052526
 H     6.241108     2.070700    -1.010146
 C     5.835600    -2.704744    -0.846199
 H     5.984292    -3.786776    -0.820795
 C     6.707522    -0.464706    -0.799927
 H     7.561873     0.215241    -0.739521
 C     6.920312    -1.838991    -0.733387
 H     7.932631    -2.230833    -0.610345
 H     3.711991     1.074068     1.217797
 C     2.456994     1.055414     2.936293
 H     3.232410     1.402576     3.638072
 H     1.882903     1.928791     2.603409
 H     1.773048     0.402947     3.499953
 C     4.060290    -0.754090     2.276024
 H     4.577213    -1.289696     1.470217
 H     4.831755    -0.293344     2.913804
 H     3.530731    -1.492440     2.897908
 H     2.575675    -2.471690     1.019313
 C     0.757956    -2.123334     2.115241
 H     0.547187    -3.179409     2.348395
 H     1.268502    -1.686009     2.984856
 H    -0.202990    -1.600170     1.999247
 C     0.916955    -2.726089    -0.323422
 H     1.591180    -2.871003    -1.179294
 H     0.559224    -3.720912    -0.013623
 H     0.054379    -2.150715    -0.686941
 H    -1.787648    -1.846884    -0.188078
 H    -2.163761    -0.972254     1.279207
 C    -3.892037    -1.578414     0.145451
 C    -4.350865    -2.181603    -1.033499
 H    -3.648492    -2.338156    -1.855747
 C    -4.786082    -1.425667     1.227518
 C    -4.336129    -0.899876     2.562824
 H    -3.872306     0.096341     2.504735
 H    -3.585454    -1.565744     3.019420
 H    -5.182675    -0.830545     3.259359
 C    -5.676277    -2.577344    -1.183091
 H    -6.007756    -3.038127    -2.116558
 C    -6.117442    -1.823124     1.057700
 H    -6.813516    -1.697035     1.891647
 C    -6.571336    -2.381537    -0.134269
 H    -7.617793    -2.678367    -0.235699
 H    -3.719690     1.235138     0.880951
 C    -3.136087     3.074813    -0.011147
 H    -4.029413     3.634097     0.310859
 H    -2.338342     3.248121     0.720250
 H    -2.801908     3.501195    -0.968777
 C    -4.718752     1.398748    -1.000818
 H    -5.022161     0.348406    -1.091089
 H    -5.563784     1.947399    -0.554690
 H    -4.571899     1.804988    -2.013229
 H    -3.245217    -0.106680    -2.531677
 C    -1.944918     1.481605    -3.184825
 H    -2.118128     1.304930    -4.258513
 H    -2.599864     2.306530    -2.871278
 H    -0.903216     1.810724    -3.051780
 C    -1.286655    -0.913960    -2.894454
 H    -1.490743    -1.881470    -2.412648
 H    -1.422870    -1.052152    -3.979033
 H    -0.231020    -0.659044    -2.713397
