  76
scf done:    -1997.014040
 C     0.963619    -3.094752     1.292282
 H     1.956318    -3.480812     1.040088
 H     0.796059    -2.964858     2.364683
 C    -0.129949    -3.385256     0.437575
 H     0.037837    -3.986831    -0.461384
 H    -1.132458    -3.482117     0.860975
 H    -0.607600    -1.069172     1.387611
Rh     0.430094    -1.306495     0.202107
 C     0.630726     1.403947     2.423724
 O     2.923518     0.248137     1.976657
 O     1.905384     1.579117     0.016427
 C    -0.434887     0.839749    -2.418484
 O    -2.432549    -0.689564    -1.631201
 O    -1.667169     1.162981    -0.022220
 P    -1.064818    -0.048285    -0.959580
 P     1.505960     0.449295     1.156573
 C     1.658632    -1.648455    -1.225929
 O     2.401066    -1.852143    -2.076456
 H    -0.330355     1.712439     1.989840
 H     0.437839     0.729761     3.269242
 H     1.205754     2.271779     2.774503
 C     3.840633    -0.749112     1.555363
 H     4.493579    -0.948383     2.419691
 H     3.285963    -1.676742     1.330007
 C     4.658250    -0.328652     0.349448
 H     3.971175    -0.038616    -0.463456
 H     5.241159     0.574563     0.601454
 C     5.582927    -1.432483    -0.141880
 H     4.982386    -2.333796    -0.356616
 H     6.279156    -1.718382     0.666622
 C     6.365973    -1.042409    -1.384700
 H     5.685267    -0.805777    -2.217873
 H     6.990525    -0.152938    -1.202775
 H     7.030387    -1.854031    -1.717407
 C     2.654644     2.753850     0.280575
 H     2.660768     2.983817     1.360130
 H     3.701832     2.575239    -0.015124
 C     2.060286     3.901291    -0.508077
 H     2.710954     4.785422    -0.391003
 H     2.088308     3.636077    -1.579776
 C     0.632475     4.230131    -0.097562
 H     0.628010     4.581653     0.949704
 H     0.050910     3.294954    -0.103822
 C    -0.035338     5.260376    -0.992038
 H     0.517515     6.213600    -0.996452
 H    -0.086698     4.906442    -2.034634
 H    -1.063999     5.476060    -0.664569
 H     0.385632     1.496691    -2.096078
 H    -0.031199     0.083871    -3.107288
 H    -1.215905     1.406754    -2.943595
 C    -2.702094    -2.083818    -1.538406
 H    -3.214631    -2.357003    -2.475293
 H    -1.748519    -2.633949    -1.493185
 C    -3.553317    -2.437157    -0.337327
 H    -3.565824    -3.537902    -0.245001
 H    -3.042521    -2.061200     0.566624
 C    -4.980035    -1.914590    -0.395477
 H    -5.484890    -2.339448    -1.281310
 H    -4.955434    -0.825479    -0.557807
 C    -5.780768    -2.232052     0.856329
 H    -5.829754    -3.318380     1.035281
 H    -5.322212    -1.773387     1.747143
 H    -6.814056    -1.859544     0.786708
 C    -2.498671     2.225109    -0.462670
 H    -2.223479     3.091376     0.161764
 H    -2.270115     2.497836    -1.506284
 C    -3.975409     1.928818    -0.304267
 H    -4.524319     2.836797    -0.612692
 H    -4.261637     1.133439    -1.011335
 C    -4.372752     1.540927     1.112795
 H    -3.961243     2.282822     1.820556
 H    -3.885026     0.585838     1.368744
 C    -5.876957     1.435447     1.303135
 H    -6.371230     2.404417     1.126087
 H    -6.319995     0.709995     0.603268
 H    -6.135523     1.110557     2.322236
