  84
scf done:    -1853.342906
 C     2.624394    -1.762276     2.052417
 H     2.893066    -2.800880     1.835061
 H     3.457827    -1.059843     1.956258
 C     1.589213    -1.503032     2.987623
 H     1.086228    -2.347760     3.468555
 H     1.625795    -0.603152     3.608195
 H     1.486193     0.360994     1.320313
Rh     0.876845    -1.075085     0.998417
 C     1.507282     1.280993    -1.587591
 C     3.586784    -0.682781    -1.184765
 C     1.205878    -1.383028    -2.697426
 C    -2.101082    -0.110474    -0.501451
 C    -2.449837    -0.660077     2.345412
 C    -0.993800     1.850082     1.395776
 P    -1.198631     0.011557     1.117133
 P     1.721817    -0.499488    -1.111410
 C     0.135799    -2.808010     0.768914
 O    -0.337125    -3.856199     0.724162
 H     1.873877     1.434763    -2.615960
 H     0.418085     1.449394    -1.622030
 C     2.144041     2.288543    -0.641134
 H     1.935316     1.987367     0.399612
 H     3.242767     2.259080    -0.737767
 C     1.652474     3.711595    -0.867734
 H     0.548064     3.726056    -0.806325
 H     1.895347     4.034553    -1.896613
 C     2.217606     4.712472     0.129954
 H     1.976984     4.370799     1.152514
 H     3.320099     4.705571     0.066831
 C     1.699207     6.126707    -0.073174
 H     2.123307     6.826134     0.663073
 H     0.601974     6.166488     0.024212
 H     1.952471     6.505787    -1.076430
 H     3.900515    -0.195590    -0.245545
 C     3.992037    -2.150628    -1.110285
 H     5.070675    -2.240365    -0.905103
 H     3.446672    -2.676353    -0.314759
 H     3.798823    -2.667313    -2.064003
 C     4.273100     0.013445    -2.353745
 H     4.097982     1.098341    -2.368971
 H     5.362865    -0.140840    -2.293927
 H     3.947127    -0.394316    -3.324402
 H     2.115518    -1.380923    -3.322990
 C     0.816731    -2.829294    -2.419173
 H     0.711896    -3.384148    -3.365729
 H     1.551147    -3.356623    -1.795790
 H    -0.149265    -2.878570    -1.895324
 C     0.103487    -0.685434    -3.487277
 H     0.387959     0.319970    -3.826334
 H    -0.137342    -1.277576    -4.385023
 H    -0.822371    -0.599134    -2.900295
 H    -1.564462     0.587583    -1.166705
 H    -1.832973    -1.114479    -0.868165
 C    -3.604820     0.081423    -0.644762
 H    -4.136539    -0.651120    -0.014678
 H    -3.913789     1.075278    -0.284421
 C    -4.062884    -0.086388    -2.088510
 H    -3.749453    -1.080106    -2.457639
 H    -3.534775     0.646357    -2.726328
 C    -5.565226     0.072231    -2.275648
 H    -6.087815    -0.660891    -1.635946
 H    -5.872971     1.065201    -1.902371
 C    -6.014868    -0.094520    -3.718114
 H    -7.103915     0.025249    -3.821479
 H    -5.751703    -1.092004    -4.105381
 H    -5.534679     0.648902    -4.374711
 H    -2.856397    -1.524850     1.787350
 C    -1.779564    -1.207110     3.600239
 H    -2.533583    -1.671786     4.256127
 H    -1.018469    -1.955430     3.352482
 H    -1.280890    -0.411307     4.174236
 C    -3.609383     0.259387     2.718817
 H    -4.144130     0.662562     1.850684
 H    -4.339983    -0.296670     3.328945
 H    -3.263506     1.107182     3.328585
 H    -0.156751     2.041379     0.705216
 C    -2.126329     2.787767     0.996151
 H    -1.787265     3.831964     1.102566
 H    -2.424901     2.652837    -0.053379
 H    -3.019948     2.671121     1.624132
 C    -0.474630     2.130755     2.801423
 H     0.360258     1.459790     3.051688
 H    -0.113190     3.169522     2.872307
 H    -1.260251     2.005095     3.562084
