 106
scf done:    -2989.327119
 C     0.943402    -3.327222    -1.571030
 H     1.466099    -3.295894    -2.532575
 H     1.527066    -3.786668    -0.767370
 C    -0.471297    -3.418633    -1.559214
 H    -1.009017    -3.451455    -2.511946
 H    -0.985819    -3.924345    -0.738665
 H     0.166621    -2.100652     0.489439
Rh     0.103734    -1.435343    -0.954713
 C     2.690100    -1.165547     1.306847
 C     3.342660    -0.009405    -1.290134
 C     1.571144     1.430169     0.491743
 C    -1.828851     1.410006    -0.281810
 C    -3.414548    -0.967821    -0.733271
 C    -1.927773    -0.700923     1.763238
 P    -1.793637    -0.445697    -0.045392
 P     1.929380    -0.254273    -0.138719
 C    -0.022367    -0.574445    -2.650861
 O    -0.131347     0.000273    -3.642317
 H     1.963883    -1.051973     2.126429
 H     2.596226    -2.211715     0.986593
 C     4.089922    -0.855970     1.746881
 C     4.326490     0.100024     2.742265
 H     3.478854     0.615831     3.195487
 C     5.191014    -1.537605     1.184254
 C     5.012137    -2.641484     0.182222
 H     4.500656    -2.296099    -0.726838
 H     4.410517    -3.466149     0.598942
 H     5.983912    -3.057291    -0.116708
 C     5.613396     0.416717     3.163572
 H     5.763174     1.166353     3.944492
 C     6.481347    -1.198052     1.609500
 H     7.332601    -1.723788     1.168155
 C     6.702804    -0.229104     2.583863
 H     7.721919     0.007918     2.899400
 C     3.375635    -0.776885    -2.454146
 H     2.540210    -1.455714    -2.635438
 C     4.405240     0.886693    -1.044019
 O     4.316143     1.647617     0.056673
 C     5.351742     2.527347     0.387414
 H     6.303461     1.992398     0.542339
 H     5.058870     3.004779     1.330468
 H     5.486784     3.305143    -0.384838
 C     4.438721    -0.703223    -3.353263
 H     4.440773    -1.322119    -4.252587
 C     5.477085     0.961340    -1.941136
 H     6.306656     1.641853    -1.749244
 C     5.491170     0.165132    -3.085167
 H     6.337598     0.235655    -3.773074
 C     1.372508     1.718726     1.839360
 H     1.498061     0.931378     2.582583
 C     1.329343     2.455203    -0.449834
 O     1.453595     2.097163    -1.740014
 C     1.170033     3.016408    -2.757045
 H     0.134270     3.392259    -2.686318
 H     1.287607     2.473803    -3.702566
 H     1.866670     3.872239    -2.736110
 C     0.975418     2.989073     2.265827
 H     0.823963     3.183769     3.329778
 C     0.950819     3.732209    -0.032461
 H     0.768559     4.520700    -0.762669
 C     0.774222     3.994530     1.327442
 H     0.465645     4.993304     1.644579
 H    -1.055490     1.797100     0.394636
 H    -1.408436     1.527468    -1.290062
 C    -3.098187     2.192867    -0.131182
 C    -3.364827     2.831547     1.089563
 H    -2.637787     2.742870     1.898541
 C    -4.019068     2.342331    -1.189237
 C    -3.817533     1.748945    -2.555229
 H    -4.436664     0.848480    -2.689545
 H    -2.779785     1.450258    -2.749387
 H    -4.113385     2.469233    -3.332981
 C    -4.520335     3.574148     1.294378
 H    -4.694675     4.060189     2.257454
 C    -5.182477     3.093558    -0.964295
 H    -5.894558     3.209438    -1.786672
 C    -5.445116     3.700116     0.258333
 H    -6.359344     4.282744     0.396863
 C    -3.427793    -1.618767    -1.964942
 H    -2.466743    -1.847004    -2.428964
 C    -4.645298    -0.693959    -0.099139
 O    -4.585375    -0.108450     1.105464
 C    -5.761337     0.272280     1.760115
 H    -6.342793     0.990967     1.158939
 H    -5.449165     0.761790     2.690666
 H    -6.391902    -0.600709     2.004803
 C    -4.621714    -1.969964    -2.594879
 H    -4.604292    -2.471527    -3.564439
 C    -5.846748    -1.038853    -0.728126
 H    -6.801038    -0.815384    -0.251023
 C    -5.828688    -1.669684    -1.972099
 H    -6.776099    -1.931240    -2.450345
 C    -1.541861     0.259417     2.692951
 H    -1.212888     1.238626     2.349380
 C    -2.315687    -1.972393     2.236463
 O    -2.655526    -2.868278     1.292403
 C    -3.055293    -4.155381     1.661595
 H    -2.255392    -4.693428     2.199792
 H    -3.280564    -4.688932     0.729626
 H    -3.961886    -4.136496     2.291876
 C    -1.543647    -0.007324     4.064266
 H    -1.233997     0.766839     4.769820
 C    -2.329291    -2.244365     3.605838
 H    -2.634513    -3.225460     3.970479
 C    -1.942512    -1.258831     4.516159
 H    -1.953159    -1.483637     5.585425
