  96
scf done:    -3901.515463
 C    -0.775200    -4.053198    -0.647317
 H    -1.288060    -4.545152     0.185056
 H    -1.368495    -3.988813    -1.563203
 C     0.637370    -4.056871    -0.712418
 H     1.226243    -4.550423     0.066598
 H     1.139549    -3.985122    -1.680526
 H    -0.102404    -1.817685    -1.654078
Rh    -0.033122    -2.098383    -0.089864
 O    -2.107918     0.116841    -1.466459
 C    -3.439733    -1.832177    -0.163629
 C    -2.193039     0.391302     1.264633
 O     2.078600     0.009139     1.324402
 C     3.378033    -1.877515    -0.095605
 C     2.138184     0.430648    -1.398096
 P     1.867165    -0.852654    -0.129954
 P    -1.920692    -0.827847    -0.069502
 C     0.023315    -2.494318     1.785461
 O     0.044665    -2.738812     2.905164
 C    -2.679229     1.350535    -1.529312
 C    -3.921140     1.511121    -2.147654
 H    -4.439535     0.634189    -2.536119
 C    -2.009600     2.467463    -1.022910
 H    -1.035244     2.337249    -0.552154
 C    -4.498892     2.772639    -2.243262
 H    -5.470562     2.905245    -2.721980
 C    -2.586645     3.730821    -1.107010
 H    -2.072833     4.603480    -0.701462
 C    -3.833310     3.877010    -1.711398
Cl    -4.568899     5.446151    -1.801003
 C    -4.105834    -2.048939    -1.366193
 H    -3.753814    -1.531667    -2.260781
 C    -3.846988    -2.539928     0.982361
 O    -3.115221    -2.309984     2.090381
 C    -3.389402    -3.013002     3.269260
 H    -4.391910    -2.770728     3.662930
 H    -2.629428    -2.703902     3.997081
 H    -3.315876    -4.103754     3.117089
 C    -5.192476    -2.923141    -1.435495
 H    -5.706857    -3.082254    -2.385580
 C    -4.935560    -3.411248     0.921765
 H    -5.263470    -3.952349     1.809873
 C    -5.606769    -3.593418    -0.289467
 H    -6.456698    -4.278888    -0.330209
 C    -1.077266     0.771857     2.012051
 H    -0.118569     0.289535     1.805443
 C    -3.433865     1.011982     1.524755
 O    -4.475149     0.613357     0.779302
 C    -5.708551     1.265613     0.891154
 H    -6.140262     1.152039     1.900506
 H    -6.375675     0.786960     0.163543
 H    -5.621982     2.338631     0.648467
 C    -1.163210     1.758579     2.993226
 H    -0.273717     2.046644     3.556614
 C    -3.523716     2.000980     2.509326
 H    -4.474595     2.494524     2.710350
 C    -2.389974     2.368973     3.233314
 H    -2.476636     3.147819     3.995256
 C     2.710733     1.200927     1.493184
 C     2.128020     2.384070     1.030954
 H     1.173414     2.340853     0.506394
 C     3.924880     1.252245     2.182474
 H     4.373575     0.324713     2.538783
 C     2.766937     3.604897     1.226870
 H     2.321817     4.529397     0.856346
 C     4.562822     2.470273     2.389880
 H     5.513568     2.517155     2.923538
 C     3.986275     3.642011     1.899483
Cl     4.799656     5.158276     2.125823
 C     3.992543    -2.214032     1.107830
 H     3.607572    -1.779710     2.032609
 C     3.829997    -2.477949    -1.285200
 O     3.153316    -2.137862    -2.399534
 C     3.507325    -2.703313    -3.628482
 H     4.541530    -2.443152    -3.914782
 H     2.815780    -2.287836    -4.371919
 H     3.404068    -3.802540    -3.615541
 C     5.069236    -3.101807     1.141056
 H     5.541258    -3.353765     2.093001
 C     4.909451    -3.363214    -1.259517
 H     5.270538    -3.824093    -2.179377
 C     5.527014    -3.666649    -0.044557
 H     6.368881    -4.363095    -0.033360
 C     1.035226     0.835277    -2.151083
 H     0.082602     0.322321    -1.999689
 C     3.378746     1.073048    -1.601443
 O     4.408951     0.642191    -0.858801
 C     5.637063     1.312846    -0.905577
 H     6.095964     1.253315    -1.907568
 H     6.290353     0.807038    -0.184049
 H     5.531402     2.371421    -0.613026
 C     1.132764     1.872467    -3.077829
 H     0.253057     2.179753    -3.646449
 C     3.479657     2.112249    -2.531688
 H     4.430274     2.622278    -2.687639
 C     2.357463     2.506931    -3.259433
 H     2.451771     3.324656    -3.978578
