  88
scf done:    -2702.253313
 C     1.700702    -3.717455    -1.567650
 H     2.406945    -3.674499    -2.402866
 H     2.119524    -4.140254    -0.650036
 C     0.314440    -3.857042    -1.830010
 H    -0.038398    -3.918221    -2.864041
 H    -0.314314    -4.392534    -1.111926
 H     0.452507    -2.429252     0.277459
Rh     0.706893    -1.835932    -1.192770
 C     2.119396    -0.005763     1.588677
 C     3.936236    -1.603865    -0.001390
 C     3.021238     0.943986    -0.944341
 C    -1.864138     0.473714    -1.875421
 C    -2.754339    -2.190554    -0.974834
 C    -1.558741    -0.265243     0.969157
 P    -1.383067    -0.924374    -0.773306
 P     2.360840    -0.605116    -0.140061
 C     0.954923    -1.149693    -2.938511
 O     1.096706    -0.719967    -3.997391
 H     3.050892     0.486456     1.919231
 H     1.356332     0.788833     1.530241
 C     1.689111    -1.066273     2.591593
 H     2.473393    -1.836963     2.681191
 H     0.809387    -1.599701     2.197783
 C     1.383389    -0.480540     3.960919
 H     2.258828     0.039086     4.382645
 H     0.562052     0.252023     3.903032
 H     1.082226    -1.261997     4.674811
 H     3.645712    -2.503572     0.561813
 H     4.140676    -1.942898    -1.028225
 C     5.129776    -0.932649     0.601867
 C     6.059376    -0.259418    -0.203815
 H     5.928599    -0.261322    -1.289148
 C     5.344530    -0.930715     1.987375
 H     4.651608    -1.466676     2.640323
 C     7.152702     0.405526     0.344421
 H     7.878948     0.926845    -0.281753
 C     6.431766    -0.271240     2.554453
 H     6.603053    -0.272421     3.632421
 C     7.322766     0.395650     1.723131
 F     8.364950     1.029897     2.257442
 H     3.929529     1.244627    -0.399303
 H     3.328317     0.641158    -1.957573
 C     2.057305     2.089891    -1.009511
 C     1.233045     2.286469    -2.124446
 H     1.295900     1.599402    -2.970158
 C     1.966616     3.010465     0.045281
 H     2.619597     2.899019     0.914270
 C     0.332953     3.348404    -2.182038
 H    -0.313827     3.500163    -3.047692
 C     1.069592     4.074950     0.007187
 H     0.993902     4.788969     0.829166
 C     0.253787     4.222838    -1.107437
 F    -0.635739     5.218817    -1.137898
 H    -1.213015     1.300723    -1.552597
 H    -1.484650     0.188999    -2.870983
 C    -3.306633     0.950707    -1.986861
 H    -3.762262     1.049882    -0.991103
 H    -3.899199     0.193387    -2.526554
 C    -3.400277     2.282001    -2.718270
 H    -2.873041     3.071838    -2.160196
 H    -2.950005     2.222398    -3.722816
 H    -4.445987     2.603007    -2.838718
 H    -3.067897    -2.111354    -2.027323
 H    -2.232860    -3.152549    -0.881831
 C    -3.931212    -2.162713    -0.047968
 C    -3.847986    -2.793848     1.202148
 H    -2.928044    -3.317252     1.477490
 C    -5.139623    -1.540188    -0.384761
 H    -5.244496    -1.057237    -1.357397
 C    -4.914204    -2.782937     2.098138
 H    -4.851095    -3.274651     3.070487
 C    -6.218995    -1.523003     0.494207
 H    -7.161378    -1.039028     0.231686
 C    -6.090641    -2.139792     1.732477
 F    -7.118186    -2.125649     2.580075
 H    -1.877180    -1.112968     1.592508
 H    -0.524436    -0.039493     1.253580
 C    -2.419037     0.939270     1.189525
 C    -1.917169     2.210496     0.880865
 H    -0.885742     2.312555     0.536157
 C    -3.729867     0.844462     1.670534
 H    -4.137903    -0.131433     1.938175
 C    -2.705698     3.351677     0.992317
 H    -2.320986     4.337633     0.725280
 C    -4.531184     1.976202     1.799024
 H    -5.556177     1.908536     2.168126
 C    -4.012940     3.216050     1.444448
 F    -4.782274     4.299245     1.552134
