 114
scf done:    -2845.810415
 C     0.403844    -2.303548    -2.959697
 H     0.842921    -1.932685    -3.890859
 H     0.966654    -3.120761    -2.497433
 C    -0.999107    -2.231537    -2.768764
 H    -1.629113    -1.805927    -3.556719
 H    -1.502038    -2.982612    -2.153166
 H     0.107527    -1.869480    -0.446779
Rh    -0.041167    -0.726268    -1.554632
 C     3.024760    -1.765329    -0.392785
 C     3.023220     1.080357    -1.346127
 C     1.767693     0.356452     1.271352
 C    -1.442329     1.886533     0.240367
 C    -3.358667     0.346563    -1.425010
 C    -2.434914    -0.562562     1.266264
 P    -1.838521     0.146242    -0.342784
 P     1.956972    -0.224241    -0.508798
 C    -0.063329     0.681643    -2.819764
 O    -0.031285     1.583201    -3.535901
 H     2.824079    -2.179133     0.604030
 H     2.564986    -2.448004    -1.117925
 C     4.501492    -1.663624    -0.608867
 C     5.366961    -1.601763     0.489207
 H     4.947873    -1.634171     1.496391
 C     5.038868    -1.655627    -1.914321
 C     4.163631    -1.847362    -3.121497
 H     3.234476    -1.259360    -3.082589
 H     3.852383    -2.902107    -3.210011
 H     4.697993    -1.583406    -4.044563
 C     6.743336    -1.488419     0.318335
 H     7.396284    -1.435079     1.192533
 C     6.423986    -1.524386    -2.068399
 H     6.843105    -1.504400    -3.078261
 C     7.274802    -1.433661    -0.968299
 H     8.352179    -1.332206    -1.119292
 H     3.668467     0.518068    -2.034106
 H     2.319234     1.644682    -1.971547
 C     3.858636     2.008057    -0.517604
 C     5.202111     1.706389    -0.267452
 H     5.630712     0.799951    -0.696128
 C     3.316955     3.207007    -0.004569
 C     1.920740     3.641878    -0.348371
 H     1.173809     2.862074    -0.144588
 H     1.833648     3.881905    -1.421579
 H     1.631902     4.537368     0.218792
 C     5.995503     2.534840     0.520032
 H     7.038582     2.268274     0.705037
 C     4.124449     4.023043     0.796031
 H     3.702424     4.946127     1.202920
 C     5.450000     3.692354     1.070118
 H     6.057007     4.347629     1.699316
 H     1.825738     1.452402     1.232644
 H     0.730253     0.093745     1.514492
 C     2.698773    -0.162825     2.322878
 C     3.830784     0.576672     2.682477
 H     4.014637     1.535806     2.195818
 C     2.437018    -1.389098     2.972489
 C     1.176512    -2.164927     2.707821
 H     0.945928    -2.266500     1.636706
 H     0.305020    -1.665529     3.165435
 H     1.232922    -3.173906     3.138404
 C     4.726408     0.106383     3.637992
 H     5.606521     0.700368     3.894694
 C     3.356074    -1.853356     3.920804
 H     3.163670    -2.808248     4.417708
 C     4.496186    -1.123174     4.250822
 H     5.196054    -1.511710     4.994478
 H    -0.778064     1.725219     1.103374
 H    -0.810370     2.293854    -0.557131
 C    -2.542487     2.836940     0.591013
 C    -3.163380     2.768635     1.845216
 H    -2.801934     2.043046     2.577746
 C    -2.965783     3.821289    -0.329905
 C    -2.276638     4.017776    -1.651397
 H    -2.256484     3.107699    -2.269613
 H    -1.225610     4.320613    -1.512890
 H    -2.772336     4.803692    -2.236888
 C    -4.221480     3.607141     2.181399
 H    -4.694079     3.523973     3.162642
 C    -4.029871     4.658694     0.025421
 H    -4.363262     5.416886    -0.688281
 C    -4.666593     4.551452     1.259748
 H    -5.498390     5.215775     1.504932
 H    -3.269640     1.366571    -1.827735
 H    -3.165586    -0.333355    -2.263978
 C    -4.743840     0.136323    -0.882474
 C    -5.444600     1.202905    -0.304690
 H    -4.961789     2.177447    -0.229539
 C    -5.386097    -1.114448    -1.012534
 C    -4.715290    -2.276387    -1.681638
 H    -3.736340    -2.497760    -1.234101
 H    -4.546326    -2.078709    -2.753277
 H    -5.329040    -3.183273    -1.600711
 C    -6.749093     1.052147     0.157481
 H    -7.267796     1.905123     0.601093
 C    -6.694043    -1.250395    -0.533469
 H    -7.186358    -2.222032    -0.627832
 C    -7.377413    -0.185603     0.047698
 H    -8.399648    -0.323317     0.408406
 H    -1.555925    -0.475206     1.929621
 H    -3.190242     0.137359     1.643942
 C    -2.971255    -1.969357     1.307834
 C    -2.228977    -3.033277     0.782114
 H    -1.265321    -2.817502     0.316453
 C    -4.212739    -2.237180     1.923167
 C    -5.020268    -1.157461     2.582207
 H    -5.269018    -0.343697     1.885581
 H    -4.475422    -0.710940     3.430487
 H    -5.965867    -1.559792     2.969418
 C    -2.707289    -4.340222     0.814098
 H    -2.108562    -5.148652     0.387719
 C    -4.683226    -3.555274     1.935343
 H    -5.651793    -3.760424     2.399529
 C    -3.950368    -4.602179     1.382680
 H    -4.346615    -5.620257     1.407906
