 100
scf done:    -3305.881425
 C     2.681500     2.242543    -2.463209
 H     3.535118     2.812079    -2.082770
 H     2.953020     1.454770    -3.172071
 C     1.410830     2.868522    -2.564534
 H     1.303966     3.914786    -2.261373
 H     0.713525     2.560309    -3.348455
 H     0.945773     0.445923    -1.995566
Rh     1.406502     1.492821    -0.896995
 O     2.595334    -1.705163    -0.953862
 C     4.439050    -0.048917    -0.092241
 C     2.240938    -0.888798     1.602387
 O    -0.763789     0.244614     1.262416
 C    -1.739801     2.604907     0.298114
 C    -1.807036     0.211120    -1.315973
 P    -0.717994     1.155746    -0.177232
 P     2.622729    -0.254310    -0.076814
 C     1.864626     2.836001     0.385679
 O     2.089699     3.668129     1.143595
 C     1.450439    -2.266870    -1.416429
 C     1.032599    -2.025380    -2.728930
 H     1.628058    -1.362681    -3.357414
 C     0.709257    -3.131299    -0.605703
 H     1.056467    -3.339634     0.407569
 C    -0.124636    -2.622155    -3.219697
 H    -0.458062    -2.432776    -4.241232
 C    -0.446989    -3.735808    -1.093108
 H    -1.023903    -4.421293    -0.469809
 C    -0.866769    -3.466655    -2.394488
Cl    -2.320513    -4.200481    -2.991148
 H     4.632212     0.890480     0.454318
 H     4.670906     0.169052    -1.146752
 C     5.275927    -1.197202     0.448916
 H     5.045074    -1.343741     1.517589
 H     4.983880    -2.131266    -0.061584
 C     6.788689    -0.999185     0.308198
 H     7.043984    -0.034004     0.785686
 C     7.533988    -2.101245     1.052760
 H     7.254850    -2.129553     2.117733
 H     8.624343    -1.960537     0.993889
 H     7.302168    -3.089357     0.621327
 C     7.233110    -0.935251    -1.148990
 H     8.323274    -0.801622    -1.223981
 H     6.763416    -0.102692    -1.693745
 H     6.974034    -1.868649    -1.676371
 H     2.856021    -1.783153     1.795857
 H     1.185815    -1.195841     1.553540
 C     2.420070     0.162845     2.687188
 H     3.452898     0.553306     2.664069
 H     1.760161     1.019044     2.467422
 C     2.124355    -0.334341     4.105583
 H     2.774002    -1.210463     4.293664
 C     2.484698     0.742857     5.122279
 H     3.541511     1.041150     5.038825
 H     2.311955     0.396954     6.153122
 H     1.871611     1.646095     4.966155
 C     0.675319    -0.775474     4.275685
 H     0.489366    -1.132370     5.300378
 H     0.399372    -1.588879     3.588478
 H    -0.012898     0.062407     4.080341
 C    -1.883855    -0.340729     1.766207
 C    -2.192736    -1.656240     1.412371
 H    -1.526228    -2.189975     0.734392
 C    -2.714140     0.351463     2.651607
 H    -2.444909     1.364401     2.955148
 C    -3.356718    -2.254629     1.881277
 H    -3.618507    -3.271945     1.585702
 C    -3.879827    -0.243196     3.126308
 H    -4.543793     0.295240     3.804422
 C    -4.206444    -1.537398     2.722822
Cl    -5.683276    -2.261107     3.268640
 H    -1.219543     3.077746     1.148614
 H    -2.719002     2.255944     0.659730
 C    -1.884257     3.595019    -0.849838
 H    -0.877658     3.849745    -1.218506
 H    -2.400703     3.112023    -1.699772
 C    -2.633803     4.879826    -0.490040
 H    -2.108596     5.337442     0.369664
 C    -2.574592     5.863679    -1.652730
 H    -1.534832     6.087348    -1.937521
 H    -3.068778     6.814761    -1.401114
 H    -3.081181     5.450425    -2.541002
 C    -4.076493     4.613656    -0.074255
 H    -4.599972     5.551790     0.166415
 H    -4.142634     3.964283     0.811781
 H    -4.633267     4.122357    -0.890328
 H    -1.400363    -0.814634    -1.302459
 H    -1.539911     0.600569    -2.310964
 C    -3.317249     0.214499    -1.099174
 H    -3.558314     0.155227    -0.028075
 H    -3.741871     1.172345    -1.449117
 C    -4.032671    -0.939299    -1.806179
 H    -3.548669    -1.875949    -1.472370
 C    -5.495050    -0.997971    -1.382961
 H    -5.591266    -1.121797    -0.292488
 H    -6.016833    -1.839357    -1.864684
 H    -6.025803    -0.072718    -1.664004
 C    -3.891597    -0.862955    -3.321418
 H    -4.388141    -1.715320    -3.808758
 H    -2.837143    -0.878554    -3.636060
 H    -4.347560     0.062975    -3.711505
