 114
scf done:    -2546.016904
 C     1.187648    -3.292269     0.568326
 H     1.742092    -3.723985    -0.270746
 H     1.782536    -3.184409     1.480910
 C    -0.208794    -3.513606     0.673150
 H    -0.719300    -4.101062    -0.096929
 H    -0.667317    -3.588820     1.661846
 H     0.258941    -1.182828     1.631526
Rh     0.147756    -1.469621     0.065495
 C     2.731153     0.224149     1.607532
 C     3.516393    -0.892276    -0.978284
 C     1.946508     1.580699    -0.884316
 C    -2.419082     0.285598    -1.406076
 C    -3.222035    -1.575300     0.835715
 C    -2.067192     1.151996     1.372010
 P    -1.918322    -0.362262     0.280452
 P     2.049487    -0.109398    -0.104736
 C    -0.107535    -1.855134    -1.775700
 O    -0.327479    -2.110551    -2.876757
 H     1.994358     0.895639     2.073210
 H     2.612834    -0.738575     2.120238
 C     4.118404     0.769516     1.745248
 C     4.354633     2.134674     1.534291
 H     3.506500     2.792619     1.330614
 C     5.208728    -0.070095     2.062170
 C     5.019818    -1.520323     2.411064
 H     4.538171    -2.095137     1.605718
 H     4.384204    -1.636751     3.303947
 H     5.985366    -1.997962     2.626447
 C     5.639623     2.667368     1.565878
 H     5.794230     3.734091     1.387626
 C     6.495312     0.480401     2.084350
 H     7.341566    -0.171274     2.319010
 C     6.721461     1.829927     1.825663
 H     7.738687     2.227794     1.845610
 H     3.921282    -1.547879    -0.186941
 C     4.638691     0.057422    -1.413561
 H     4.934954     0.731277    -0.600059
 H     4.273442     0.695421    -2.237290
 C     5.855130    -0.723438    -1.902952
 H     6.646339    -0.022861    -2.216112
 H     6.271778    -1.301063    -1.057810
 C     5.494062    -1.669550    -3.040932
 H     6.372889    -2.258496    -3.350560
 H     5.192883    -1.074260    -3.922245
 C     4.345650    -2.589973    -2.645969
 H     4.686220    -3.273121    -1.846244
 H     4.052427    -3.229480    -3.494407
 C     3.135220    -1.809763    -2.142169
 H     2.713042    -1.213580    -2.969564
 H     2.344526    -2.502015    -1.827390
 H     2.958070     2.022250    -0.873375
 C     0.998415     2.486573    -0.104190
 H     1.349791     2.631100     0.929188
 H     0.031614     1.965869    -0.024119
 C     0.793150     3.841354    -0.771595
 H     0.073076     4.438578    -0.187375
 H     1.744538     4.403664    -0.758395
 C     0.320814     3.688080    -2.211490
 H     0.212966     4.674176    -2.691263
 H    -0.685519     3.229851    -2.218874
 C     1.278855     2.807970    -3.003721
 H     2.255205     3.318839    -3.087330
 H     0.912954     2.666797    -4.033550
 C     1.477950     1.451216    -2.336262
 H     0.527879     0.888498    -2.347711
 H     2.191429     0.849922    -2.919042
 H    -1.573907     0.954365    -1.636234
 H    -2.287292    -0.578437    -2.068652
 C    -3.708320     0.988264    -1.711768
 C    -3.881252     2.328254    -1.343500
 H    -3.065226     2.846608    -0.833062
 C    -4.735600     0.343023    -2.434738
 C    -4.570352    -1.056781    -2.957677
 H    -4.330619    -1.779873    -2.162567
 H    -3.752302    -1.115635    -3.694189
 H    -5.488695    -1.399681    -3.453464
 C    -5.060923     3.014961    -1.614229
 H    -5.168973     4.057849    -1.307155
 C    -5.917609     1.044979    -2.695613
 H    -6.716670     0.542090    -3.247383
 C    -6.093523     2.363465    -2.283281
 H    -7.028326     2.884910    -2.501813
 H    -2.976198    -2.433858     0.181819
 C    -4.715979    -1.282113     0.672963
 H    -4.951266    -0.909728    -0.330558
 H    -5.022556    -0.488101     1.369151
 C    -5.526527    -2.540623     0.977517
 H    -6.602331    -2.333221     0.856038
 H    -5.275202    -3.321414     0.236307
 C    -5.242640    -3.064482     2.381473
 H    -5.797973    -3.998832     2.564714
 H    -5.618757    -2.331160     3.118065
 C    -3.749749    -3.276715     2.611962
 H    -3.392358    -4.107852     1.977675
 H    -3.561658    -3.579687     3.655012
 C    -2.947963    -2.023751     2.275891
 H    -3.239368    -1.213402     2.966807
 H    -1.871806    -2.190427     2.424020
 H    -1.724562     1.954227     0.693026
 C    -1.099265     1.138518     2.555382
 H    -0.099936     0.840550     2.211596
 H    -1.409888     0.359858     3.273469
 C    -1.062063     2.495889     3.248409
 H    -0.375796     2.461539     4.110407
 H    -0.643251     3.242402     2.548173
 C    -2.450250     2.946233     3.688746
 H    -2.407511     3.953430     4.134384
 H    -2.812749     2.269900     4.484000
 C    -3.435915     2.915803     2.526809
 H    -3.148893     3.679649     1.780392
 H    -4.447361     3.186984     2.870789
 C    -3.466656     1.547237     1.851435
 H    -3.822666     0.800960     2.580482
 H    -4.187585     1.551164     1.023498
