 102
scf done:    -2537.331662
 C     0.877432     3.103508    -2.637125
 H     1.357455     3.976464    -2.183449
 H     1.434846     2.675192    -3.474310
 C    -0.537652     2.992828    -2.603347
 H    -1.129032     3.778157    -2.122409
 H    -1.054375     2.480155    -3.418343
 H     0.309618     0.615022    -2.468307
Rh     0.317531     1.586532    -1.206331
 C     2.530812    -1.062357    -1.712644
 O     3.638524     1.055698    -0.495062
 O     1.941941    -0.308342     0.877976
 C    -1.357950    -0.025190     1.449516
 O    -2.766585     0.143950    -0.810920
 O    -0.743381    -1.447751    -0.845005
 P    -1.176176     0.078545    -0.397587
 P     2.143672     0.361541    -0.611924
 C     0.253030     2.813404     0.258249
 O     0.193150     3.553486     1.134336
 H     1.524776    -1.438830    -1.950646
 H     2.928130    -0.601842    -2.630516
 C     3.390123    -2.168407    -1.181984
 C     2.763843    -3.244037    -0.541515
 H     1.673598    -3.248442    -0.477591
 C     4.796619    -2.153106    -1.288043
 C     5.513605    -1.051726    -2.012087
 H     5.272613    -0.072370    -1.575468
 H     5.216478    -1.015980    -3.073679
 H     6.601664    -1.199460    -1.976273
 C     3.497715    -4.280813     0.026562
 H     2.984555    -5.106060     0.526045
 C     5.519662    -3.202487    -0.710064
 H     6.610554    -3.192104    -0.785972
 C     4.887934    -4.254030    -0.049243
 H     5.482544    -5.056582     0.393667
 C     3.761715     2.449670    -0.250379
 H     4.750120     2.740668    -0.639621
 H     2.995106     2.986059    -0.836433
 C     3.635229     2.802608     1.217647
 H     2.685911     2.391163     1.601292
 H     4.442231     2.307907     1.785473
 C     3.668432     4.304171     1.462837
 H     2.883988     4.785158     0.853057
 H     4.627839     4.715043     1.101401
 C     3.465060     4.670736     2.923599
 H     2.484991     4.318107     3.281977
 H     4.237752     4.215109     3.563544
 H     3.503857     5.759555     3.077423
 C     2.967952    -0.739043     1.768109
 H     3.584429    -1.522826     1.300787
 H     3.626557     0.111107     2.001985
 C     2.290672    -1.251422     3.020377
 H     3.063935    -1.446664     3.783272
 H     1.654485    -0.442360     3.420995
 C     1.452843    -2.502300     2.791325
 H     2.121456    -3.342507     2.539349
 H     0.832271    -2.343752     1.894287
 C     0.571241    -2.866038     3.973962
 H     1.167336    -3.033968     4.885441
 H    -0.149020    -2.061967     4.197970
 H    -0.005944    -3.784202     3.783664
 H    -0.661483    -0.811572     1.772810
 H    -0.916431     0.915907     1.806548
 C    -2.729941    -0.218678     2.021737
 C    -3.136506    -1.472078     2.488783
 H    -2.434699    -2.309148     2.447945
 C    -3.623427     0.869711     2.110304
 C    -3.220627     2.241729     1.656578
 H    -2.903133     2.241127     0.602798
 H    -2.374665     2.633669     2.244705
 H    -4.052929     2.951409     1.757568
 C    -4.411325    -1.676122     3.011623
 H    -4.703940    -2.666959     3.366693
 C    -4.898551     0.650142     2.639370
 H    -5.593274     1.492218     2.703463
 C    -5.301173    -0.608702     3.080910
 H    -6.306077    -0.750728     3.485419
 C    -3.186452     0.772560    -2.014752
 H    -3.018642     1.860033    -1.929083
 H    -2.578122     0.415679    -2.863074
 C    -4.650257     0.466960    -2.235131
 H    -4.954413     0.942196    -3.184379
 H    -4.768820    -0.619586    -2.382154
 C    -5.551634     0.929727    -1.099725
 H    -5.444612     2.022454    -0.975317
 H    -5.192033     0.482715    -0.159735
 C    -7.012871     0.573515    -1.313824
 H    -7.413953     1.032296    -2.232366
 H    -7.145288    -0.516788    -1.406889
 H    -7.637728     0.910161    -0.472640
 C    -1.244550    -2.661426    -0.309902
 H    -0.570405    -3.441266    -0.700820
 H    -1.128054    -2.663139     0.786927
 C    -2.675418    -2.985730    -0.689651
 H    -2.920312    -3.953152    -0.215013
 H    -3.354767    -2.241453    -0.244926
 C    -2.909924    -3.074098    -2.189665
 H    -2.187723    -3.782782    -2.632846
 H    -2.681654    -2.096072    -2.643233
 C    -4.325978    -3.498489    -2.542502
 H    -4.550056    -4.505718    -2.155742
 H    -5.069394    -2.811729    -2.106667
 H    -4.486754    -3.516250    -3.631056
