  94
scf done:    -4670.200454
 C    -0.259336     1.175360    -4.253687
 H    -0.885826     0.552384    -4.898119
 H    -0.656899     2.176622    -4.069468
 C     1.132782     0.945438    -4.182593
 H     1.585991     0.145971    -4.775174
 H     1.810781     1.767662    -3.940153
 H     0.421044     1.662728    -1.859230
Rh     0.205636     0.179904    -2.379854
 C    -1.884617     1.769684    -0.042604
 O    -3.096657     0.051966    -1.810547
 O    -1.640447    -1.007080     0.034157
 C     1.766307    -1.981190    -0.114941
 O     3.368430    -0.092909    -1.421848
 O     1.794036     0.551941     0.549209
 P     1.814824    -0.314515    -0.890333
 P    -1.617732     0.251006    -1.068758
 C    -0.095362    -1.592864    -3.061444
 O    -0.311532    -2.651109    -3.442097
 H    -1.283740     1.617191     0.865984
 H    -1.363269     2.547111    -0.618360
 C    -3.288281     2.170574     0.288348
 C    -3.847004     1.834464     1.525858
 H    -3.242947     1.288792     2.253511
 C    -4.053953     2.902715    -0.644550
 C    -3.484961     3.304058    -1.973349
 H    -3.191241     2.422611    -2.564030
 H    -2.587035     3.933048    -1.855902
 H    -4.217220     3.875741    -2.559109
 C    -5.157112     2.180731     1.844208
 H    -5.573207     1.899882     2.814281
 C    -5.365780     3.250544    -0.304102
 H    -5.963479     3.817535    -1.022891
 C    -5.922926     2.888735     0.921486
 H    -6.952232     3.169726     1.156641
 C    -4.070078    -0.852732    -1.489635
 C    -5.270530    -0.403954    -0.940016
 H    -5.408802     0.660664    -0.749978
 C    -3.873535    -2.212766    -1.737951
 H    -2.933978    -2.551753    -2.177131
 C    -6.270725    -1.317605    -0.620777
 H    -7.210576    -0.977088    -0.183686
 C    -4.869197    -3.129002    -1.412741
 H    -4.723656    -4.195017    -1.593506
 C    -6.063043    -2.677591    -0.849190
Cl    -7.299816    -3.817456    -0.432646
 C    -2.016253    -1.015740     1.348069
 C    -3.255621    -1.527442     1.732209
 H    -3.947823    -1.896075     0.976273
 C    -1.110488    -0.570871     2.313354
 H    -0.129705    -0.214010     1.992218
 C    -3.604179    -1.552373     3.078635
 H    -4.574851    -1.942071     3.388837
 C    -1.459100    -0.588066     3.660932
 H    -0.762147    -0.235615     4.423173
 C    -2.712520    -1.069964     4.037231
Cl    -3.159209    -1.082405     5.709742
 H     0.785740    -1.979974     0.389189
 H     1.663958    -2.668488    -0.967157
 C     2.879014    -2.375052     0.807320
 C     2.835773    -1.987038     2.150559
 H     1.962834    -1.441533     2.515490
 C     3.987145    -3.104194     0.329108
 C     4.046826    -3.596343    -1.087990
 H     3.869106    -2.790784    -1.815321
 H     3.287277    -4.374828    -1.272342
 H     5.030320    -4.031517    -1.309620
 C     3.887344    -2.271690     3.015827
 H     3.837361    -1.955792     4.060439
 C     5.038060    -3.374407     1.210355
 H     5.910138    -3.919636     0.840280
 C     5.000986    -2.958412     2.538707
 H     5.842355    -3.176208     3.200526
 C     4.593353    -0.203280    -0.812879
 C     5.638501    -0.668182    -1.611853
 H     5.433754    -0.917318    -2.654395
 C     4.833787     0.159417     0.512883
 H     4.025780     0.527988     1.140329
 C     6.912660    -0.823908    -1.077347
 H     7.731769    -1.200648    -1.691821
 C     6.107050     0.001155     1.048846
 H     6.296923     0.255872     2.092168
 C     7.138490    -0.501221     0.259263
Cl     8.711861    -0.735061     0.948243
 C     1.769085     1.913452     0.639021
 C     1.184865     2.466315     1.780628
 H     0.777191     1.805114     2.546900
 C     2.321754     2.748765    -0.335279
 H     2.802923     2.321724    -1.215724
 C     1.124329     3.846139     1.940300
 H     0.663407     4.282866     2.827434
 C     2.258316     4.130534    -0.177817
 H     2.683309     4.789641    -0.936240
 C     1.654397     4.676195     0.953001
Cl     1.571206     6.395607     1.140666
