  88
scf done:    -4591.638303
 C     0.296850    -4.146727    -0.797044
 H    -0.155466    -4.835542    -0.077640
 H    -0.171440    -4.152398    -1.785256
 C     1.658540    -3.792123    -0.675813
 H     2.258927    -4.206031     0.139260
 H     2.232911    -3.514381    -1.562655
 H     0.469548    -1.688380    -1.549975
Rh     0.429887    -2.122503    -0.017081
 C    -2.657753    -1.999567    -1.673016
 O    -2.797360    -1.598531     0.932296
 O    -1.710530     0.309768    -0.447747
 C     1.831822     0.488235     1.893433
 O     3.372294    -0.421514    -0.038196
 O     1.291414     0.907285    -0.811367
 P     1.726828    -0.300190     0.234497
 P    -1.662211    -1.343047    -0.273442
 C     0.496575    -2.676073     1.824706
 O     0.615740    -3.007899     2.913100
 H    -2.569928    -3.089641    -1.530379
 H    -2.051997    -1.760483    -2.561239
 C    -4.089567    -1.584314    -1.854629
 C    -4.455977    -0.755843    -2.921444
 H    -3.691911    -0.416923    -3.625209
 C    -5.086207    -2.018862    -0.971802
 H    -4.817483    -2.672022    -0.140068
 C    -5.773496    -0.335814    -3.080870
 H    -6.034312     0.332614    -3.904539
 C    -6.405555    -1.603742    -1.132940
 H    -7.169496    -1.947378    -0.431123
 C    -6.753221    -0.753568    -2.181914
 H    -7.786381    -0.419394    -2.301683
 C    -2.463172    -1.476449     2.249883
 C    -2.770177    -2.528892     3.111487
 H    -3.257380    -3.418140     2.707996
 C    -1.833895    -0.328924     2.739171
 H    -1.614002     0.494355     2.057358
 C    -2.439212    -2.443950     4.459241
 H    -2.665887    -3.264946     5.140931
 C    -1.492757    -0.245577     4.085852
 H    -0.992556     0.641186     4.478893
 C    -1.792430    -1.305433     4.939983
Cl    -1.358660    -1.206878     6.612763
 C    -2.745320     1.090639    -0.888861
 C    -3.957477     1.161838    -0.200674
 H    -4.112237     0.555062     0.691402
 C    -2.532483     1.861568    -2.030970
 H    -1.568199     1.797443    -2.538689
 C    -4.978260     1.966787    -0.691917
 H    -5.943320     2.006415    -0.185454
 C    -3.550014     2.677096    -2.517079
 H    -3.403584     3.274917    -3.418012
 C    -4.774228     2.711657    -1.852998
Cl    -6.069489     3.669552    -2.491565
 H     2.079197    -0.364603     2.548165
 H     0.788085     0.749416     2.125613
 C     2.752574     1.647461     2.145464
 C     2.230672     2.922128     2.392172
 H     1.147648     3.067471     2.396585
 C     4.142978     1.479934     2.154500
 H     4.564439     0.490354     1.971862
 C     3.071876     4.011375     2.601465
 H     2.645018     5.003604     2.764086
 C     4.985551     2.567502     2.368416
 H     6.068385     2.420271     2.365732
 C     4.454581     3.838728     2.583707
 H     5.116448     4.693610     2.740252
 C     3.885736    -1.156474    -1.068880
 C     4.909753    -2.058451    -0.782014
 H     5.251663    -2.160088     0.249369
 C     3.421911    -1.011169    -2.377798
 H     2.620329    -0.303389    -2.593671
 C     5.470064    -2.823440    -1.799056
 H     6.268512    -3.535633    -1.585536
 C     3.975275    -1.782569    -3.395934
 H     3.616789    -1.684567    -4.421728
 C     4.994921    -2.686807    -3.103411
Cl     5.681142    -3.647541    -4.371532
 C     1.646314     2.228930    -0.744549
 C     2.970854     2.638473    -0.902518
 H     3.754220     1.896009    -1.055345
 C     0.632143     3.165256    -0.550885
 H    -0.395995     2.816075    -0.444556
 C     3.285958     3.989198    -0.813015
 H     4.320605     4.322937    -0.899844
 C     0.944835     4.519099    -0.473805
 H     0.163662     5.262793    -0.308803
 C     2.273761     4.921332    -0.587707
Cl     2.679624     6.597981    -0.417642
