  88
scf done:    -2305.491485
 C     0.541541    -1.242450    -3.436707
 H     1.235325    -0.690791    -4.079797
 H     0.832149    -2.280898    -3.255038
 C    -0.831770    -0.880730    -3.438023
 H    -1.164986    -0.059728    -4.080764
 H    -1.599863    -1.637171    -3.255043
 H    -0.334048    -1.687712    -1.117015
Rh     0.053397    -0.221865    -1.598752
 C     1.677264    -1.908189     1.065735
 C     3.500855    -0.475353    -0.597369
 C     1.826782     0.960921     1.177233
 C    -1.569340     2.059928     0.561652
 C    -3.369065     0.348737    -0.849030
 C    -1.808323    -0.745193     1.293959
 P    -1.666680     0.362657    -0.161370
 P     1.754631    -0.425916    -0.025920
 C     0.483113     1.517568    -2.245442
 O     0.718161     2.571353    -2.641293
 H     2.473688    -1.830065     1.825307
 H     0.707109    -1.861591     1.587492
 C     1.792302    -3.219685     0.303669
 H     2.765565    -3.261007    -0.214502
 H     1.023606    -3.234025    -0.486530
 C     1.632695    -4.428699     1.211910
 H     2.409844    -4.452273     1.992902
 H     0.655306    -4.412854     1.720146
 H     1.702340    -5.369532     0.644775
 C     3.774693    -0.704406    -1.945345
 H     2.939483    -0.812161    -2.640436
 C     4.560731    -0.319451     0.306104
 H     4.346207    -0.119964     1.360831
 C     5.099148    -0.785270    -2.378235
 H     5.315725    -0.965203    -3.434160
 C     5.889914    -0.394175    -0.113054
 C     7.022975    -0.216390     0.856073
 H     6.655684    -0.066876     1.880972
 H     7.687840    -1.094680     0.858971
 H     7.641545     0.655601     0.589713
 C     6.142943    -0.632583    -1.472425
 H     7.177875    -0.693023    -1.821886
 C     1.542892     0.818208     2.538412
 H     1.341874    -0.164708     2.965170
 C     2.077948     2.243089     0.669427
 H     2.302573     2.362060    -0.394078
 C     1.482793     1.946944     3.358283
 H     1.246713     1.831699     4.419432
 C     2.025369     3.379805     1.476462
 C     2.301113     4.739174     0.903230
 H     3.364025     5.008332     1.020919
 H     2.070053     4.772930    -0.171065
 H     1.709046     5.516252     1.408500
 C     1.711704     3.214750     2.833764
 H     1.648261     4.092639     3.482738
 H    -0.671817     2.062954     1.202972
 H    -1.312049     2.710898    -0.290212
 C    -2.785346     2.608381     1.294794
 H    -3.127472     1.890196     2.058364
 H    -3.623260     2.704044     0.585661
 C    -2.494633     3.952297     1.946408
 H    -1.682632     3.868278     2.686990
 H    -2.176478     4.695822     1.197982
 H    -3.381355     4.353557     2.460533
 C    -3.550890     0.842702    -2.144449
 H    -2.678988     1.148046    -2.727579
 C    -4.483419    -0.069328    -0.113436
 H    -4.346847    -0.452774     0.901297
 C    -4.833031     0.928125    -2.681519
 H    -4.974055     1.320310    -3.691741
 C    -5.774474    -0.006980    -0.647554
 C    -6.957169    -0.493618     0.139385
 H    -6.725984    -0.562709     1.211812
 H    -7.824560     0.172399     0.017507
 H    -7.268570    -1.496701    -0.196762
 C    -5.933967     0.504030    -1.941384
 H    -6.936239     0.566486    -2.374940
 C    -1.562851    -0.325943     2.604661
 H    -1.344886     0.719588     2.822534
 C    -2.066185    -2.102210     1.055668
 H    -2.232970    -2.436142     0.027359
 C    -1.561516    -1.255982     3.645088
 H    -1.353358    -0.924365     4.665546
 C    -2.084631    -3.041779     2.087943
 C    -2.389414    -4.483958     1.803487
 H    -3.477524    -4.663377     1.803894
 H    -2.009697    -4.786288     0.816732
 H    -1.947273    -5.147735     2.560404
 C    -1.817078    -2.599736     3.391371
 H    -1.806397    -3.321044     4.213152
