  88
scf done:    -2154.153316
 C    -1.008959    -3.533406    -1.334206
 H    -1.241832    -4.266045    -0.555175
 H    -1.853130    -3.296682    -1.987291
 C     0.310465    -3.456345    -1.852984
 H     1.086446    -4.125020    -1.468323
 H     0.451301    -3.164931    -2.897192
 H    -0.574558    -1.077863    -1.921679
Rh    -0.062918    -1.751409    -0.571740
 C    -2.510992     0.708887    -0.844917
 O    -2.941912    -0.971794     1.176907
 O    -1.111260     0.774420     1.392364
 C     2.400778     0.332327     0.845254
 O     2.806559    -0.201292    -1.696583
 O     0.762253     1.303012    -1.147683
 P     1.502999    -0.097761    -0.696011
 P    -1.653023    -0.383638     0.329500
 C     0.627670    -2.627471     0.979110
 O     1.066385    -3.162066     1.895588
 H    -1.700972     1.217008    -1.391633
 H    -2.992471     0.026224    -1.565844
 C    -3.502170     1.688463    -0.241800
 H    -4.284363     1.129957     0.299008
 H    -2.985318     2.300250     0.516506
 C    -4.139966     2.601744    -1.279084
 H    -4.658297     1.990478    -2.040321
 H    -3.345763     3.144525    -1.823784
 C    -5.118596     3.604285    -0.683863
 H    -5.906901     3.057373    -0.136738
 H    -4.594599     4.209679     0.077166
 C    -5.752875     4.519579    -1.718548
 H    -6.453295     5.232823    -1.257958
 H    -6.313247     3.942659    -2.471897
 H    -4.988747     5.103903    -2.256338
 C    -3.149684    -2.360859     1.427252
 H    -2.182032    -2.881301     1.308573
 C    -4.124780    -2.906185     0.403352
 H    -3.721492    -2.778270    -0.611088
 H    -5.086258    -2.373553     0.468786
 H    -4.306829    -3.979036     0.566978
 C    -3.641763    -2.505747     2.852483
 H    -2.905690    -2.107813     3.565560
 H    -4.586592    -1.957464     2.989787
 H    -3.817266    -3.564625     3.093838
 C    -1.317455     0.752178     2.799747
 H    -2.379737     0.520982     2.990262
 C    -1.013842     2.150471     3.297680
 H    -1.651908     2.888243     2.790177
 H     0.037756     2.410303     3.098169
 H    -1.188913     2.224076     4.381297
 C    -0.460661    -0.305620     3.471866
 H    -0.694769    -1.309955     3.093203
 H     0.608570    -0.118302     3.292924
 H    -0.634248    -0.306771     4.558672
 H     1.691310     0.942341     1.430053
 H     2.482045    -0.623540     1.388046
 C     3.777541     0.975825     0.750883
 H     4.434497     0.323858     0.154159
 H     3.730011     1.926953     0.196184
 C     4.391485     1.224581     2.121680
 H     4.441815     0.270742     2.678154
 H     3.722105     1.877454     2.712166
 C     5.779013     1.847835     2.061152
 H     6.441306     1.193626     1.467146
 H     5.723407     2.799392     1.502965
 C     6.392468     2.092303     3.430262
 H     7.393552     2.542984     3.353365
 H     6.493695     1.152105     3.996005
 H     5.767567     2.771242     4.032804
 C     2.741075    -0.951544    -2.913637
 H     2.148978    -1.858936    -2.705593
 C     4.161363    -1.335988    -3.265665
 H     4.618177    -1.912701    -2.448496
 H     4.774018    -0.437478    -3.439077
 H     4.179932    -1.949781    -4.178459
 C     2.047600    -0.149631    -3.997888
 H     1.028608     0.121293    -3.685765
 H     2.602841     0.776122    -4.214505
 H     1.979639    -0.738744    -4.925039
 C     1.222940     2.632881    -0.917753
 H     1.755249     2.664194     0.048753
 C    -0.007658     3.508639    -0.799023
 H    -0.655445     3.133480     0.005606
 H    -0.577606     3.502255    -1.741195
 H     0.276989     4.547483    -0.574572
 C     2.168030     3.067644    -2.021628
 H     3.034382     2.394256    -2.080255
 H     1.650624     3.045014    -2.992924
 H     2.526769     4.092629    -1.842333
