 100
scf done:    -2910.897033
 C    -0.073874    -3.971926    -1.075589
 H    -0.535585    -4.665559    -0.366656
 H    -0.598820    -3.887434    -2.031387
 C     1.317719    -3.728653    -1.022520
 H     1.930329    -4.233089    -0.269829
 H     1.861943    -3.444463    -1.926202
 H     0.244307    -1.497733    -1.710815
Rh     0.266011    -2.013875    -0.203402
 C    -2.880831    -1.494461    -1.656954
 O    -2.852065    -1.334480     0.976208
 O    -1.686722     0.608727    -0.292038
 C     1.877202     0.443101     1.732654
 O     3.334644    -0.558495    -0.221962
 O     1.364625     0.959921    -0.950588
 P     1.708401    -0.302814     0.058585
 P    -1.765399    -1.049598    -0.263274
 C     0.423617    -2.674417     1.596320
 O     0.616447    -3.077216     2.650605
 H    -2.856443    -2.596654    -1.631128
 H    -2.313129    -1.199431    -2.553332
 C    -4.292030    -0.983058    -1.707983
 C    -4.671841    -0.054407    -2.683173
 H    -3.930362     0.302792    -3.401560
 C    -5.260230    -1.433620    -0.801353
 H    -4.980400    -2.161253    -0.038158
 C    -5.972820     0.438028    -2.734080
 H    -6.243065     1.171691    -3.497359
 C    -6.561899    -0.942344    -0.851312
 H    -7.302139    -1.300674    -0.131594
 C    -6.923137    -0.000179    -1.813746
 H    -7.944634     0.386083    -1.850235
 C    -2.430511    -1.385009     2.276352
 C    -2.741799    -2.512226     3.034055
 H    -3.307670    -3.321596     2.569097
 C    -1.708045    -0.337032     2.848387
 H    -1.488871     0.550215     2.251797
 C    -2.313376    -2.593693     4.354551
 H    -2.555141    -3.485570     4.939080
 C    -1.277592    -0.439833     4.168631
 H    -0.702335     0.381329     4.605592
 C    -1.561443    -1.569286     4.943480
 C    -1.047441    -1.697587     6.347540
 H    -1.756961    -2.238816     6.990563
 H    -0.857211    -0.713840     6.800100
 H    -0.097384    -2.257503     6.365371
 C    -2.687440     1.494310    -0.605411
 C    -3.837635     1.607463     0.177130
 H    -3.973447     0.952529     1.037959
 C    -2.502505     2.324856    -1.707284
 H    -1.589138     2.224259    -2.296933
 C    -4.814507     2.527573    -0.181487
 H    -5.725615     2.592620     0.419305
 C    -3.488117     3.250884    -2.043568
 H    -3.340227     3.895355    -2.914575
 C    -4.665337     3.360831    -1.298367
 C    -5.755967     4.314183    -1.689543
 H    -6.085957     4.924939    -0.834993
 H    -6.640743     3.766651    -2.055313
 H    -5.431101     4.995623    -2.488378
 H     2.018372    -0.439998     2.378351
 H     0.864756     0.815340     1.951711
 C     2.913123     1.490863     2.022843
 C     2.523590     2.798938     2.330128
 H     1.461358     3.054069     2.338848
 C     4.279758     1.183034     2.022180
 H     4.598501     0.166316     1.788501
 C     3.470652     3.783392     2.597952
 H     3.142814     4.801117     2.823132
 C     5.227881     2.166455     2.290299
 H     6.290060     1.909552     2.278459
 C     4.828724     3.472290     2.573686
 H     5.574531     4.243513     2.781009
 C     3.775833    -1.314827    -1.274478
 C     4.696216    -2.328738    -1.013931
 H     5.017425    -2.498037     0.015510
 C     3.336512    -1.087744    -2.578143
 H     2.609993    -0.297869    -2.774845
 C     5.169998    -3.115575    -2.057695
 H     5.885512    -3.913947    -1.841509
 C     3.815750    -1.891393    -3.610574
 H     3.457392    -1.714858    -4.628476
 C     4.737405    -2.916846    -3.375521
 C     5.266923    -3.763138    -4.496906
 H     6.273413    -3.433104    -4.804262
 H     4.618243    -3.708879    -5.382710
 H     5.348852    -4.819497    -4.199868
 C     1.839610     2.244289    -0.844205
 C     3.190988     2.539438    -1.028994
 H     3.898007     1.734630    -1.231749
 C     0.925691     3.261382    -0.585712
 H    -0.126453     3.005489    -0.452080
 C     3.620142     3.855569    -0.912413
 H     4.683863     4.077976    -1.032382
 C     1.373477     4.577073    -0.485505
 H     0.651155     5.370991    -0.275897
 C     2.725945     4.897606    -0.632627
 C     3.221732     6.304287    -0.468306
 H     3.831459     6.399607     0.445789
 H     2.390993     7.019967    -0.392158
 H     3.857938     6.610918    -1.313011
