  96
scf done:    -3006.872088
 C    -0.215712    -3.088066    -2.967762
 H    -0.891503    -3.918582    -2.739433
 H    -0.578996    -2.422565    -3.756359
 C     1.182332    -3.250808    -2.780651
 H     1.568022    -4.205125    -2.408310
 H     1.878441    -2.711471    -3.430030
 H     0.665975    -0.812115    -2.248444
Rh     0.395152    -2.001418    -1.212684
 C    -1.947392     0.633523    -1.683662
 C    -3.018339    -1.992497    -0.764563
 C    -1.538804    -0.215129     1.147438
 C     3.059469    -2.590429     0.881581
 C     3.732037    -0.802185    -1.367752
 C     2.326516     0.162166     1.020579
 P     2.333511    -1.238847    -0.192373
 P    -1.540808    -0.848096    -0.616253
 C     0.011272    -3.380457     0.036018
 O    -0.279390    -4.171255     0.819916
 H    -1.380787     0.445525    -2.606413
 H    -1.475975     1.491481    -1.183511
 C    -3.379483     0.930605    -2.007308
 C    -4.128809     1.845119    -1.257372
 H    -3.662327     2.361803    -0.418211
 C    -3.997312     0.301842    -3.098244
 H    -3.418305    -0.389855    -3.717456
 C    -5.461331     2.102466    -1.570534
 H    -6.025285     2.818252    -0.967691
 C    -5.331404     0.555089    -3.412147
 H    -5.792936     0.052438    -4.265460
 C    -6.071688     1.453420    -2.643490
 H    -7.117298     1.654762    -2.887791
 H    -3.384850    -1.856646    -1.792388
 H    -2.573398    -2.995755    -0.728835
 C    -4.142344    -1.905812     0.221042
 C    -4.054716    -2.593000     1.440369
 H    -3.168670    -3.197946     1.654437
 C    -5.307154    -1.175289    -0.044487
 H    -5.410716    -0.647134    -0.992777
 C    -5.080163    -2.534476     2.381675
 H    -5.018065    -3.068074     3.331711
 C    -6.342638    -1.109002     0.883195
 H    -7.250560    -0.538398     0.679996
 C    -6.213835    -1.784668     2.090621
 F    -7.201240    -1.722317     2.983599
 H    -1.825529    -1.082510     1.762124
 H    -0.471273    -0.038542     1.334673
 C    -2.317877     1.006989     1.530803
 C    -1.732361     2.275287     1.405330
 H    -0.705550     2.363363     1.043309
 C    -3.620173     0.929494     2.039239
 H    -4.089932    -0.044064     2.175787
 C    -2.431681     3.433712     1.736300
 H    -1.977996     4.421188     1.634582
 C    -4.332271     2.076151     2.378007
 H    -5.348918     2.016908     2.770730
 C    -3.731790     3.318577     2.213154
 F    -4.411396     4.420131     2.531495
 H     3.030633    -3.484891     0.241549
 H     2.309149    -2.748926     1.672376
 C     4.422912    -2.385165     1.457707
 C     4.608626    -1.696648     2.665127
 H     3.736486    -1.354854     3.228271
 C     5.559257    -2.856795     0.785153
 H     5.436456    -3.428667    -0.138796
 C     5.887056    -1.449867     3.160310
 H     6.008172    -0.907696     4.101181
 C     6.839329    -2.614484     1.279094
 H     7.709933    -2.988098     0.735090
 C     7.008775    -1.899116     2.463672
 H     8.011495    -1.704686     2.850722
 H     4.435612    -1.647423    -1.328987
 H     3.274766    -0.809911    -2.365686
 C     4.442159     0.497153    -1.124540
 C     4.128912     1.622116    -1.898228
 H     3.402849     1.527432    -2.708986
 C     5.384871     0.645171    -0.099079
 H     5.668741    -0.216049     0.507652
 C     4.701753     2.863896    -1.643981
 H     4.447008     3.744459    -2.235954
 C     5.967147     1.880876     0.171684
 H     6.697382     2.001414     0.973906
 C     5.607262     2.979891    -0.597521
 F     6.147960     4.169186    -0.330536
 H     1.610272    -0.152745     1.801394
 H     3.313008     0.209044     1.505717
 C     1.977826     1.536085     0.510011
 C     2.431764     2.656356     1.218282
 H     3.039316     2.514447     2.115720
 C     1.225666     1.752461    -0.649000
 H     0.882858     0.892417    -1.229006
 C     2.140524     3.949845     0.795853
 H     2.499887     4.824336     1.340978
 C     0.926256     3.039971    -1.089455
 H     0.344357     3.210840    -1.997346
 C     1.387177     4.126121    -0.358840
 F     1.108129     5.361634    -0.772887
