  94
scf done:    -2832.329418
 C     0.563219     3.073970    -1.503265
 H     1.127653     3.821314    -0.938722
 H     1.080594     2.686487    -2.384434
 C    -0.843760     3.046543    -1.446899
 H    -1.378908     3.786578    -0.844254
 H    -1.420902     2.627409    -2.274902
 H    -0.095892     0.578859    -1.573166
Rh    -0.070654     1.420408    -0.221399
 C     2.084410    -1.384510    -0.737224
 O     3.267463     0.917027    -0.248960
 O     2.036191    -0.172174     1.743439
 C    -3.028599     0.963339     1.584099
 O    -2.989396     0.371890    -1.138892
 O    -2.034177    -1.260446     0.653965
 P    -1.999295     0.346818     0.187063
 P     1.802301     0.216280     0.132675
 C    -0.010641     2.439034     1.404875
 O     0.021717     3.041360     2.377780
 H     1.814964    -2.165312    -0.010973
 H     1.300811    -1.401081    -1.505529
 C     3.437159    -1.640374    -1.328924
 C     4.355537    -2.454091    -0.660939
 H     4.076109    -2.896289     0.298202
 C     3.787207    -1.071721    -2.570826
 C     2.816227    -0.212111    -3.325715
 H     2.493902     0.655520    -2.729322
 H     1.900705    -0.768288    -3.588192
 H     3.258745     0.161517    -4.259394
 C     5.618574    -2.700748    -1.192832
 H     6.322314    -3.335878    -0.649754
 C     5.058107    -1.330432    -3.091521
 H     5.333737    -0.891146    -4.054487
 C     5.973655    -2.132732    -2.412811
 H     6.961916    -2.315626    -2.841717
 C     3.549408     2.237410    -0.063677
 C     4.177721     2.915951    -1.108998
 H     4.411725     2.367490    -2.023174
 C     3.249427     2.896105     1.130272
 H     2.782208     2.348058     1.949941
 C     4.484228     4.265610    -0.965101
 H     4.971931     4.797234    -1.785720
 C     3.551225     4.251167     1.257772
 H     3.302903     4.767690     2.187939
 C     4.163869     4.941673     0.213558
 H     4.397851     6.003128     0.319210
 C     3.030791    -1.001094     2.194002
 C     4.363299    -0.585802     2.220198
 H     4.627871     0.407236     1.857328
 C     2.675927    -2.269529     2.656212
 H     1.624820    -2.560937     2.632025
 C     5.340133    -1.458293     2.693535
 H     6.383829    -1.136001     2.704483
 C     3.661410    -3.133055     3.129995
 H     3.381657    -4.126278     3.489474
 C     4.997474    -2.732829     3.144799
 H     5.770077    -3.411402     3.512774
 H    -2.418125     0.710525     2.466345
 H    -2.995382     2.057436     1.484021
 C    -4.426831     0.443509     1.712053
 C    -4.655998    -0.768909     2.371064
 H    -3.807173    -1.300333     2.807686
 C    -5.510099     1.144005     1.143671
 C    -5.313543     2.467495     0.462644
 H    -4.537828     2.419221    -0.315779
 H    -5.006343     3.246102     1.181305
 H    -6.243433     2.803206    -0.015342
 C    -5.934161    -1.311647     2.452759
 H    -6.093095    -2.262412     2.966975
 C    -6.786588     0.581061     1.230890
 H    -7.628063     1.111043     0.777214
 C    -7.004134    -0.635962     1.871204
 H    -8.012443    -1.054009     1.918028
 C    -4.205580    -0.183838    -1.443990
 C    -4.656177    -1.403153    -0.935994
 H    -4.054683    -1.955159    -0.217370
 C    -4.980260     0.526144    -2.363728
 H    -4.591244     1.466112    -2.759514
 C    -5.902595    -1.883215    -1.330912
 H    -6.258522    -2.828843    -0.915753
 C    -6.221819     0.031956    -2.751646
 H    -6.824998     0.596148    -3.467168
 C    -6.692868    -1.173424    -2.232561
 H    -7.669512    -1.559130    -2.532362
 C    -1.309832    -2.249642     0.058655
 C    -1.233267    -2.383734    -1.330169
 H    -1.736038    -1.661477    -1.974828
 C    -0.678802    -3.174311     0.893080
 H    -0.766688    -3.044770     1.973513
 C    -0.512974    -3.446586    -1.873612
 H    -0.451309    -3.548700    -2.959628
 C     0.035931    -4.232083     0.337011
 H     0.533059    -4.950971     0.992768
 C     0.126455    -4.370294    -1.048708
 H     0.693958    -5.195466    -1.483302
