 102
scf done:    -2688.684233
 C    -1.075919    -2.916487    -2.287342
 H    -1.599221    -3.726562    -1.769703
 H    -1.683280    -2.406811    -3.041529
 C     0.328885    -2.989548    -2.449081
 H     0.869257    -3.853452    -2.050706
 H     0.804720    -2.526619    -3.317665
 H    -0.209813    -0.526204    -2.199094
Rh    -0.133173    -1.506751    -0.945822
 C    -2.839948     0.559059    -1.675870
 C    -3.263333    -1.093011     0.681737
 C    -1.540174     1.151044     0.885456
 C     1.877986     0.509015     1.104371
 C     3.402055    -1.352494    -0.502638
 C     2.238528     0.939827    -1.760552
 P     1.848425    -0.374906    -0.546533
 P    -1.929402    -0.238184    -0.249978
 C     0.017299    -2.590755     0.618217
 O     0.140098    -3.163326     1.607706
 H    -2.169643     1.356024    -2.032070
 H    -2.815996    -0.214095    -2.454686
 C    -4.228574     1.056605    -1.416333
 C    -4.436830     2.347825    -0.915775
 H    -3.579236     3.004739    -0.762054
 C    -5.344770     0.217916    -1.628323
 C    -5.192502    -1.162171    -2.197206
 H    -4.566121    -1.798985    -1.554795
 H    -4.719692    -1.139944    -3.192590
 H    -6.169912    -1.652052    -2.302338
 C    -5.710063     2.808694    -0.592912
 H    -5.840753     3.819081    -0.198457
 C    -6.617740     0.697331    -1.301651
 H    -7.480557     0.045127    -1.462399
 C    -6.808824     1.974448    -0.780007
 H    -7.815522     2.319431    -0.531692
 C    -3.320761    -2.490977     0.677637
 H    -2.543821    -3.053735     0.157286
 C    -4.261155    -0.370316     1.344815
 H    -4.219383     0.721556     1.358868
 C    -4.367088    -3.145418     1.321999
 H    -4.407227    -4.237272     1.322475
 C    -5.325479    -1.013467     1.984380
 C    -6.406827    -0.205186     2.639488
 H    -5.984900     0.550657     3.319593
 H    -6.993368     0.337295     1.880263
 H    -7.095971    -0.838666     3.215403
 C    -5.362789    -2.411909     1.964396
 H    -6.184478    -2.933090     2.463747
 C    -1.253424     2.443635     0.435959
 H    -1.387710     2.708730    -0.613989
 C    -1.328594     0.848801     2.238294
 H    -1.539013    -0.163433     2.597035
 C    -0.765810     3.403193     1.323819
 H    -0.549177     4.412694     0.964640
 C    -0.824721     1.792417     3.135157
 C    -0.532298     1.418619     4.558497
 H    -1.110290     0.537863     4.871582
 H     0.536808     1.175021     4.679913
 H    -0.757299     2.244477     5.249244
 C    -0.546724     3.081460     2.659439
 H    -0.150578     3.836112     3.343922
 H     1.128761     1.307111     1.007830
 H     1.443201    -0.222116     1.798710
 C     3.180143     1.047185     1.603891
 C     3.614762     2.313637     1.192603
 H     2.972144     2.906167     0.538451
 C     4.001363     0.284121     2.462367
 C     3.577530    -1.068711     2.954581
 H     3.442888    -1.777844     2.123330
 H     2.618942    -1.024179     3.496902
 H     4.328125    -1.490658     3.636519
 C     4.850225     2.820590     1.584765
 H     5.168722     3.808106     1.242594
 C     5.236201     0.812961     2.854175
 H     5.872973     0.222105     3.518610
 C     5.669806     2.062771     2.417784
 H     6.641910     2.446652     2.736847
 C     3.334946    -2.748889    -0.444891
 H     2.361599    -3.236955    -0.512954
 C     4.652758    -0.725930    -0.444260
 H     4.717791     0.363062    -0.503773
 C     4.501208    -3.496351    -0.305664
 H     4.446295    -4.586641    -0.260213
 C     5.831819    -1.463690    -0.296502
 C     7.150404    -0.754979    -0.192617
 H     7.323315    -0.104762    -1.064453
 H     7.170064    -0.107635     0.698810
 H     7.988152    -1.462904    -0.123089
 C     5.737336    -2.857662    -0.224485
 H     6.648790    -3.451004    -0.108880
 C     3.044291     0.674308    -2.871693
 H     3.530604    -0.297897    -2.976125
 C     1.614740     2.188123    -1.660730
 H     0.964908     2.398648    -0.809276
 C     3.227737     1.653765    -3.846350
 H     3.863328     1.442964    -4.710011
 C     1.788758     3.178651    -2.629391
 C     1.089489     4.502306    -2.506921
 H     0.212751     4.549770    -3.174170
 H     0.734694     4.675838    -1.480666
 H     1.751297     5.336647    -2.783914
 C     2.611190     2.895794    -3.727124
 H     2.766887     3.657476    -4.496298
