  96
scf done:    -2010.491418
 C     0.819365    -3.323273     0.025687
 H     1.742053    -3.594571    -0.497541
 H     0.850341    -3.507897     1.103519
 C    -0.421896    -3.398031    -0.661923
 H    -0.439842    -3.719011    -1.708169
 H    -1.331280    -3.650194    -0.108386
 H    -0.624810    -1.442697     0.979878
Rh     0.136396    -1.330657    -0.422440
 C     1.025661     0.882050     2.280245
 C     3.151135    -0.742056     1.274120
 C     2.197479     1.505531    -0.267664
 C    -1.730508     0.575361    -2.669909
 C    -3.337532    -0.998359    -0.858049
 C    -2.032548     1.383226     0.147666
 P    -1.736274    -0.085578    -0.942158
 P     1.584766     0.066078     0.719212
 C     1.014195    -1.181133    -2.097419
 O     1.543376    -1.058089    -3.112132
 H     1.873616     1.451285     2.698159
 H     0.263112     1.623394     1.986647
 C     0.459420    -0.063720     3.329944
 H     1.235853    -0.788115     3.630093
 H    -0.342634    -0.664432     2.870309
 C    -0.061775     0.664103     4.559320
 H     0.730833     1.253236     5.048391
 H    -0.873757     1.360895     4.295245
 H    -0.460351    -0.041155     5.304369
 H     2.838675    -1.596520     1.897276
 H     3.709523    -0.049700     1.926131
 C     4.003530    -1.236284     0.114891
 H     3.353952    -1.795532    -0.578562
 H     4.395634    -0.376148    -0.458877
 C     5.179838    -2.128903     0.516146
 H     4.764161    -2.983235     1.083302
 C     5.868112    -2.682398    -0.726050
 H     5.161036    -3.235048    -1.363951
 H     6.690393    -3.365187    -0.461331
 H     6.295222    -1.866608    -1.333310
 C     6.176368    -1.406257     1.415726
 H     7.021753    -2.060408     1.680055
 H     5.716023    -1.066772     2.355829
 H     6.589861    -0.519358     0.905398
 H     1.295251     2.074100    -0.553090
 H     2.568021     1.061324    -1.204994
 C     3.239434     2.422161     0.354634
 H     2.815316     2.908433     1.249000
 H     4.100704     1.829037     0.711660
 C     3.766187     3.511349    -0.586364
 H     2.890942     4.063193    -0.979050
 C     4.637563     4.498883     0.181343
 H     4.086976     4.959501     1.016524
 H     5.000026     5.308451    -0.470930
 H     5.521518     3.992676     0.604358
 C     4.526634     2.928745    -1.773029
 H     4.901357     3.725660    -2.433686
 H     3.901662     2.262174    -2.385805
 H     5.397848     2.346159    -1.428118
 H    -0.762891     1.095516    -2.774274
 H    -1.635834    -0.328670    -3.297220
 C    -2.859416     1.457242    -3.187326
 H    -2.866604     2.411517    -2.636117
 H    -3.835299     0.982631    -2.990130
 C    -2.727855     1.741579    -4.676883
 H    -1.771454     2.239076    -4.904001
 H    -2.759618     0.810003    -5.264042
 H    -3.538194     2.393120    -5.038029
 H    -3.259398    -1.800456    -1.611679
 H    -4.155964    -0.331882    -1.174283
 C    -3.612497    -1.600674     0.512388
 H    -2.734226    -2.194705     0.810263
 H    -3.695278    -0.798116     1.268670
 C    -4.867340    -2.472743     0.589897
 H    -4.772930    -3.255383    -0.186710
 C    -4.941729    -3.166045     1.945406
 H    -4.040603    -3.768763     2.137556
 H    -5.815753    -3.832583     2.011059
 H    -5.026128    -2.425796     2.758880
 C    -6.143310    -1.685225     0.311854
 H    -7.033406    -2.329354     0.384589
 H    -6.144336    -1.235670    -0.692573
 H    -6.264179    -0.868532     1.044209
 H    -1.283089     2.134353    -0.161097
 H    -1.717012     1.041296     1.144557
 C    -3.422112     2.002649     0.219317
 H    -3.794368     2.228883    -0.790857
 H    -4.131260     1.269532     0.641709
 C    -3.496668     3.283207     1.057551
 H    -2.802502     4.016574     0.604088
 C    -4.902250     3.870175     0.996581
 H    -5.214021     4.062753    -0.041925
 H    -4.967430     4.819742     1.549981
 H    -5.635266     3.175676     1.440166
 C    -3.062701     3.061576     2.502446
 H    -3.164849     3.985149     3.092796
 H    -2.013430     2.739540     2.577591
 H    -3.684563     2.287995     2.984254
