  80
scf done:    -2000.836526
 C    -1.343319     3.117208     0.086225
 H    -1.673684     3.458653    -0.899649
 H    -2.156267     2.997845     0.809817
 C    -0.052423     3.464405     0.548662
 H     0.598959     4.064531    -0.094098
 H     0.125236     3.598937     1.618623
 H    -0.530930     1.157491     1.511980
Rh    -0.077976     1.367818    -0.002305
 C    -2.992276    -0.040434     1.099236
 C    -3.082299     0.578029    -1.754287
 C    -1.742197    -1.864153    -0.811006
 C     2.359195    -1.093491    -0.488298
 C     3.415914     1.286928     0.878452
 C     1.571506    -0.615403     2.357250
 P     1.848740     0.263412     0.724756
 P    -1.903740    -0.043540    -0.423060
 C     0.686514     1.596715    -1.726579
 O     1.273118     1.687552    -2.714140
 H    -2.998493     1.014354     1.407486
 H    -2.407057    -0.569995     1.865860
 C    -4.388056    -0.568324     0.999303
 C    -4.667419    -1.939203     1.087783
 H    -3.854760    -2.643666     1.279839
 C    -5.459477     0.310250     0.788388
 H    -5.265501     1.385436     0.741054
 C    -5.966452    -2.417759     0.932596
 H    -6.159840    -3.491111     1.001213
 C    -6.759471    -0.164290     0.632697
 H    -7.577458     0.540320     0.463821
 C    -7.017633    -1.532877     0.695215
 H    -8.036085    -1.908026     0.571175
 H    -3.632620     1.365591    -1.208738
 C    -2.357006     1.251917    -2.913887
 H    -3.091642     1.660309    -3.626468
 H    -1.719733     2.074779    -2.568625
 H    -1.718047     0.547081    -3.467510
 C    -4.097602    -0.436256    -2.277712
 H    -4.646431    -0.954244    -1.481763
 H    -4.840578     0.081292    -2.905748
 H    -3.616278    -1.195499    -2.912619
 H    -2.766098    -2.254571    -0.934980
 C    -0.978266    -2.056266    -2.116355
 H    -0.837946    -3.128865    -2.326309
 H    -1.501382    -1.616214    -2.976258
 H     0.016660    -1.590626    -2.060862
 C    -1.069789    -2.617943     0.327876
 H    -1.636629    -2.566964     1.268524
 H    -0.955124    -3.682449     0.067466
 H    -0.068776    -2.211651     0.527687
 H     1.876100    -0.780567    -1.423162
 H     1.832866    -2.002440    -0.165014
 C     3.801369    -1.386402    -0.772977
 C     4.478015    -2.458804    -0.178029
 H     3.944293    -3.116807     0.510893
 C     4.506324    -0.583732    -1.681278
 H     3.983540     0.229835    -2.192730
 C     5.823952    -2.696760    -0.447739
 H     6.330916    -3.538588     0.030269
 C     5.853423    -0.814643    -1.948191
 H     6.382869    -0.171726    -2.655582
 C     6.521424    -1.867814    -1.324938
 H     7.578055    -2.050757    -1.533466
 H     3.709006     1.378736    -0.182516
 C     3.144597     2.697198     1.387516
 H     4.069260     3.293790     1.328613
 H     2.367608     3.190814     0.794558
 H     2.815740     2.700168     2.437255
 C     4.584008     0.656478     1.631116
 H     4.839397    -0.347859     1.272288
 H     5.479120     1.286824     1.504654
 H     4.381966     0.599892     2.711017
 H     0.544924    -0.989361     2.210018
 C     2.459281    -1.808663     2.684321
 H     2.147798    -2.242973     3.648549
 H     2.370786    -2.605404     1.932701
 H     3.520533    -1.540255     2.770691
 C     1.510814     0.388463     3.504456
 H     0.861908     1.240019     3.251876
 H     1.099664    -0.096331     4.404342
 H     2.507197     0.773696     3.766341
