 102
scf done:    -3085.441357
 C     0.085426    -3.199705     2.700855
 H     0.714878    -4.051055     2.422174
 H     0.460809    -2.630967     3.555966
 C    -1.314663    -3.254627     2.465638
 H    -1.748671    -4.149904     2.008340
 H    -1.993384    -2.728240     3.143775
 H    -0.614362    -0.812172     2.148718
Rh    -0.409116    -1.936600     1.027508
 C     2.006997     0.663416     1.524209
 C     3.010249    -2.008043     0.587359
 C     1.570598    -0.166995    -1.287868
 C    -3.101255    -2.314733    -1.059453
 C    -3.670007    -0.562774     1.288458
 C    -2.281365     0.407327    -1.097482
 P    -2.320814    -1.033584     0.066655
 P     1.560916    -0.820382     0.470886
 C    -0.068335    -3.240052    -0.311791
 O     0.207979    -3.987767    -1.141767
 H     1.681595     1.537479     0.944090
 H     1.341744     0.585949     2.394105
 C     3.433884     0.833623     1.945363
 C     4.285043     1.675091     1.220019
 H     3.891986     2.205152     0.351291
 C     3.929158     0.166468     3.086739
 C     3.026906    -0.662214     3.956888
 H     2.396927    -1.358522     3.382961
 H     2.333530    -0.018617     4.524785
 H     3.605457    -1.247025     4.684980
 C     5.618026     1.841769     1.583529
 H     6.261366     2.502682     0.998269
 C     5.276162     0.332827     3.429239
 H     5.665692    -0.189676     4.307300
 C     6.120918     1.156584     2.687269
 H     7.167525     1.269378     2.979860
 H     3.398314    -1.895417     1.608493
 H     2.530868    -2.995360     0.548579
 C     4.130400    -1.950080    -0.403152
 C     4.014701    -2.605130    -1.637363
 H     3.103602    -3.165566    -1.866629
 C     5.326338    -1.280552    -0.116857
 H     5.448722    -0.782586     0.846066
 C     5.044335    -2.569352    -2.575372
 H     4.961772    -3.077338    -3.537807
 C     6.365256    -1.235956    -1.041769
 H     7.297496    -0.711763    -0.824065
 C     6.208550    -1.875837    -2.265497
 F     7.199309    -1.835051    -3.156054
 H     1.823119    -1.034796    -1.916384
 H     0.509305     0.051611    -1.467317
 C     2.396037     1.030927    -1.650848
 C     1.863588     2.319319    -1.493658
 H     0.839825     2.440905    -1.132368
 C     3.694858     0.913667    -2.160990
 H     4.125018    -0.074123    -2.322601
 C     2.610900     3.456114    -1.792664
 H     2.198201     4.458396    -1.664822
 C     4.453828     2.038466    -2.470309
 H     5.467361     1.947302    -2.864931
 C     3.905692     3.299970    -2.271838
 F     4.630590     4.380360    -2.560874
 H    -2.416298    -2.354402    -1.921790
 H    -2.975670    -3.266048    -0.526440
 C    -4.513795    -2.104301    -1.502627
 C    -4.785434    -1.297930    -2.616475
 H    -3.949807    -0.887472    -3.188806
 C    -5.592051    -2.695760    -0.807048
 C    -5.371357    -3.688985     0.300386
 H    -4.686839    -3.328631     1.082492
 H    -4.930860    -4.620029    -0.093866
 H    -6.321381    -3.952799     0.784437
 C    -6.089475    -1.015401    -3.012304
 H    -6.272005    -0.379112    -3.881238
 C    -6.897329    -2.392749    -1.211843
 H    -7.733748    -2.839464    -0.667604
 C    -7.154074    -1.551833    -2.292285
 H    -8.184519    -1.333062    -2.581246
 H    -4.410092    -1.373527     1.252497
 H    -3.185487    -0.609731     2.272503
 C    -4.343567     0.762952     1.092489
 C    -3.963994     1.869588     1.862576
 H    -3.204582     1.746573     2.637952
 C    -5.332790     0.945106     0.118217
 H    -5.670704     0.095449    -0.477619
 C    -4.515833     3.128401     1.648747
 H    -4.211345     3.995070     2.237724
 C    -5.893682     2.198598    -0.113123
 H    -6.660529     2.346311    -0.875677
 C    -5.467206     3.279356     0.648168
 F    -5.990066     4.484871     0.421042
 H    -1.608310     0.089147    -1.914316
 H    -3.281290     0.519817    -1.543154
 C    -1.848361     1.741229    -0.548363
 C    -2.243981     2.908691    -1.214225
 H    -2.866809     2.832060    -2.109139
 C    -1.073623     1.874213     0.607970
 H    -0.774560     0.976345     1.153977
 C    -1.875523     4.168093    -0.751737
 H    -2.188479     5.079892    -1.263344
 C    -0.696765     3.126829     1.088003
 H    -0.094935     3.233222     1.992635
 C    -1.102278     4.261498     0.399813
 F    -0.748965     5.464332     0.851482
