  96
scf done:    -2010.487883
 C     0.862963    -3.283649    -0.126427
 H     1.801543    -3.540582    -0.628044
 H     0.856333    -3.510142     0.943838
 C    -0.352916    -3.327047    -0.860608
 H    -0.333287    -3.609359    -1.918037
 H    -1.282302    -3.596599    -0.350159
 H    -0.611976    -1.443124     0.848987
Rh     0.195839    -1.273111    -0.521345
 C     0.861119     1.021091     2.179817
 C     3.006883    -0.750125     1.506447
 C     2.352534     1.486926    -0.215094
 C    -1.617074     0.647447    -2.803772
 C    -3.253517    -1.014528    -1.103016
 C    -2.060631     1.379808     0.019585
 P    -1.680020    -0.051350    -1.092740
 P     1.565128     0.108045     0.734177
 C     1.156477    -1.071080    -2.144851
 O     1.744878    -0.929077    -3.123469
 H     1.684712     1.546591     2.692700
 H     0.205094     1.801738     1.759170
 C     0.084252     0.169327     3.173238
 H     0.761045    -0.570176     3.634457
 H    -0.666189    -0.423911     2.625056
 C    -0.586998     0.998634     4.256947
 H     0.146833     1.585055     4.833105
 H    -1.306504     1.711711     3.821247
 H    -1.137671     0.363229     4.967160
 H     3.525349    -0.070035     2.204945
 H     2.571780    -1.564117     2.109830
 C     3.974444    -1.328443     0.484479
 H     3.396901    -1.879454    -0.276791
 H     4.484753    -0.509619    -0.053374
 C     5.018769    -2.251853     1.095170
 H     4.506033    -3.077581     1.621305
 H     5.586935    -1.708101     1.872355
 C     5.986487    -2.830577     0.072478
 H     5.410845    -3.366877    -0.702471
 H     6.493999    -2.002886    -0.454367
 C     7.022389    -3.762951     0.679183
 H     7.705517    -4.164962    -0.084381
 H     6.543208    -4.619416     1.180372
 H     7.635350    -3.243254     1.433408
 H     2.809056     1.015229    -1.101415
 H     1.511382     2.084689    -0.608231
 C     3.364102     2.377768     0.490413
 H     2.895584     2.873612     1.357675
 H     4.183359     1.762004     0.900752
 C     3.956100     3.439651    -0.427459
 H     3.140096     4.058966    -0.842874
 H     4.426693     2.946623    -1.297529
 C     4.975776     4.339508     0.256631
 H     4.501395     4.827341     1.126789
 H     5.786895     3.715140     0.671723
 C     5.563860     5.395847    -0.664796
 H     6.296726     6.029420    -0.142633
 H     4.779131     6.056973    -1.066625
 H     6.075608     4.934986    -1.524988
 H    -0.661321     1.196465    -2.856101
 H    -1.470302    -0.240148    -3.444456
 C    -2.750183     1.507225    -3.348305
 H    -2.805223     2.449939    -2.780348
 H    -3.718904     1.002553    -3.196085
 C    -2.571467     1.823510    -4.826427
 H    -1.621601     2.351134    -5.008605
 H    -2.555550     0.902838    -5.431192
 H    -3.385791     2.459487    -5.205915
 H    -4.084090    -0.382930    -1.461668
 H    -3.102680    -1.807711    -1.854790
 C    -3.597070    -1.635877     0.243163
 H    -2.723771    -2.201755     0.606058
 H    -3.765231    -0.841258     0.991972
 C    -4.819666    -2.540624     0.193172
 H    -4.648265    -3.340231    -0.550521
 H    -5.690762    -1.969371    -0.177717
 C    -5.161985    -3.167733     1.537422
 H    -4.286884    -3.733816     1.902429
 H    -5.326832    -2.365422     2.278689
 C    -6.378349    -4.078021     1.489218
 H    -6.599398    -4.515382     2.474706
 H    -6.226082    -4.910153     0.783046
 H    -7.275697    -3.529371     1.159979
 H    -1.803907     1.013152     1.026213
 H    -1.300570     2.145857    -0.216599
 C    -3.454099     1.993641     0.049509
 H    -3.730688     2.388075    -0.940426
 H    -4.199409     1.214096     0.280018
 C    -3.570817     3.105802     1.084165
 H    -2.831243     3.895835     0.857884
 H    -3.286761     2.709244     2.076624
 C    -4.959971     3.722680     1.166011
 H    -5.239871     4.115794     0.172478
 H    -5.694429     2.928483     1.389004
 C    -5.069977     4.827830     2.203884
 H    -6.084438     5.252829     2.240396
 H    -4.371854     5.652011     1.985459
 H    -4.829673     4.453701     3.212155
