  72
scf done:    -1696.232374
 C     1.112811    -2.848080     1.190685
 H     1.875285    -3.366955     0.600984
 H     1.438589    -2.582155     2.200612
 C    -0.260121    -3.118500     0.944291
 H    -0.535693    -3.834789     0.163781
 H    -0.976661    -3.068900     1.769354
 H    -0.127674    -0.662801     1.646493
Rh     0.227099    -1.168914     0.170498
 C     1.534248     2.005326     1.270387
 C     3.488287    -0.029419     0.800376
 C     2.173088     1.286073    -1.423961
 C    -2.278852    -0.272581    -2.083949
 C    -3.254379    -0.940999     0.548134
 C    -1.935536     1.616046     0.156088
 P    -1.804740    -0.174973    -0.298828
 P     1.820242     0.511376     0.219204
 C     0.639990    -1.770819    -1.580688
 O     0.892579    -2.116084    -2.648879
 H     2.432507     2.644091     1.219379
 H     0.719800     2.569478     0.785636
 C     1.176195     1.720909     2.721967
 H     2.017978     1.206633     3.216467
 H     0.338750     1.004292     2.749126
 C     0.818806     2.981050     3.494640
 H     1.650314     3.704203     3.499683
 H    -0.052344     3.486932     3.046254
 H     0.568232     2.753789     4.541983
 H     4.145438     0.848182     0.933623
 H     3.321078    -0.462619     1.800718
 C     4.139171    -1.065779    -0.105378
 H     4.369624    -0.610580    -1.084202
 H     3.407216    -1.865206    -0.305880
 C     5.406417    -1.660064     0.488848
 H     6.161494    -0.882886     0.689902
 H     5.194267    -2.169305     1.442517
 H     5.860656    -2.398697    -0.189088
 H     2.366071     0.447080    -2.113777
 H     1.209041     1.712592    -1.753377
 C     3.284171     2.322001    -1.526360
 H     4.232849     1.883980    -1.172560
 H     3.072783     3.169215    -0.853070
 C     3.466915     2.839446    -2.945825
 H     3.716432     2.020088    -3.638744
 H     2.545412     3.314829    -3.318542
 H     4.274600     3.584936    -3.004757
 H    -1.411461     0.129372    -2.635085
 H    -2.273378    -1.356141    -2.297696
 C    -3.567363     0.357094    -2.596462
 H    -3.507407     1.453189    -2.500015
 H    -4.420475     0.041996    -1.972615
 C    -3.843335    -0.002450    -4.049543
 H    -3.018063     0.321775    -4.703468
 H    -3.952581    -1.091344    -4.176038
 H    -4.766708     0.471677    -4.415817
 H    -4.190357    -0.467183     0.205348
 H    -3.274223    -1.986477     0.195837
 C    -3.166876    -0.910453     2.068586
 H    -3.164035     0.135881     2.420337
 H    -2.193725    -1.326259     2.373448
 C    -4.301015    -1.669282     2.739267
 H    -5.284362    -1.253479     2.465588
 H    -4.297467    -2.730183     2.441703
 H    -4.216857    -1.631487     3.836093
 H    -1.377793     1.696132     1.103151
 H    -1.323883     2.153261    -0.590947
 C    -3.296768     2.283356     0.316160
 H    -3.891335     1.733477     1.063680
 H    -3.869718     2.227360    -0.621427
 C    -3.168166     3.736877     0.748991
 H    -2.627613     3.820136     1.705939
 H    -2.610212     4.327897     0.004841
 H    -4.153163     4.210230     0.880085
