 104
scf done:    -2763.273529
 C     1.268871    -2.624098    -2.640671
 H     1.812085    -2.280851    -3.527658
 H     1.846047    -3.292435    -1.995505
 C    -0.144559    -2.755314    -2.710109
 H    -0.653422    -2.511136    -3.648420
 H    -0.654291    -3.521194    -2.118909
 H     0.379055    -2.117602    -0.345392
Rh     0.332858    -1.041079    -1.514060
 C     2.111507    -0.528067     1.527566
 C     3.606436     0.248537    -0.779803
 C     1.443641     1.855536     0.109393
 C    -2.016986     1.410835    -0.559878
 C    -3.167353    -1.196548    -0.857284
 C    -1.497565    -0.672170     1.401855
 P    -1.594617    -0.378575    -0.402018
 P     1.878979     0.096812    -0.190579
 C     0.259577     0.179156    -2.975021
 O     0.194699     0.894945    -3.872503
 H     2.825121     0.137873     2.042512
 H     1.136310    -0.424038     2.028678
 C     2.564477    -1.974567     1.620727
 H     1.842999    -2.602603     1.071557
 H     3.536034    -2.104514     1.112418
 C     2.660235    -2.443112     3.066564
 H     1.719445    -2.190267     3.586933
 H     3.453257    -1.876963     3.589212
 C     2.916264    -3.934927     3.219064
 H     2.126696    -4.487996     2.679942
 H     3.863036    -4.201112     2.716595
 C     2.953938    -4.384638     4.670920
 H     3.118125    -5.469324     4.760673
 H     2.007146    -4.144712     5.182214
 H     3.761702    -3.879183     5.224905
 C     4.513417     1.141936    -0.185411
 H     4.178692     1.802072     0.620023
 C     4.056009    -0.559795    -1.822022
 H     3.345912    -1.243928    -2.291624
 C     5.826348     1.213830    -0.618586
 H     6.539406     1.907969    -0.169564
 C     5.377350    -0.500841    -2.268052
 H     5.692808    -1.148082    -3.086645
 C     6.271433     0.388844    -1.664528
 O     7.563451     0.528137    -2.019077
 C     8.066112    -0.261484    -3.060092
 H     7.538575    -0.071475    -4.011492
 H     9.122516     0.010446    -3.179915
 H     7.999139    -1.339061    -2.827775
 C     1.350697     2.717457    -0.998844
 H     1.651850     2.361562    -1.987125
 C     1.066610     2.356967     1.355459
 H     1.135159     1.730181     2.245046
 C     0.860419     4.004481    -0.870757
 H     0.773241     4.667966    -1.733056
 C     0.557679     3.651870     1.499959
 H     0.257885     3.997158     2.489953
 C     0.433042     4.477707     0.380488
 O    -0.082323     5.722626     0.403424
 C    -0.556897     6.232648     1.617088
 H     0.245532     6.314520     2.371509
 H    -0.949325     7.235437     1.406016
 H    -1.371720     5.611776     2.030837
 H    -1.170012     1.954583    -0.111393
 H    -1.945622     1.616022    -1.640684
 C    -3.344229     1.912914    -0.013338
 H    -4.174842     1.458695    -0.578795
 H    -3.483316     1.581801     1.030018
 C    -3.440485     3.431991    -0.076928
 H    -3.327604     3.761023    -1.125823
 H    -2.578189     3.872519     0.456647
 C    -4.732672     3.994711     0.496335
 H    -5.590528     3.562336    -0.048165
 H    -4.843157     3.653906     1.541447
 C    -4.802523     5.512457     0.442154
 H    -5.744331     5.894427     0.864618
 H    -4.729167     5.878427    -0.594512
 H    -3.974135     5.970578     1.007216
 C    -4.207498    -1.420068     0.058709
 H    -4.073309    -1.149999     1.109137
 C    -3.368169    -1.561970    -2.189273
 H    -2.555285    -1.414090    -2.904313
 C    -5.404566    -1.987549    -0.349038
 H    -6.216980    -2.171786     0.356581
 C    -4.571288    -2.122079    -2.616685
 H    -4.689289    -2.395278    -3.665489
 C    -5.599169    -2.341004    -1.692475
 O    -6.793183    -2.885689    -1.997123
 C    -7.044048    -3.264927    -3.321039
 H    -6.337146    -4.039238    -3.667954
 H    -8.060607    -3.677759    -3.343237
 H    -6.993460    -2.404820    -4.012006
 C    -1.344291    -2.000894     1.840044
 H    -1.398548    -2.813974     1.111667
 C    -1.410818     0.342497     2.353584
 H    -1.520330     1.386271     2.056724
 C    -1.090953    -2.295260     3.166415
 H    -0.958289    -3.324458     3.505386
 C    -1.138284     0.062244     3.697623
 H    -1.057887     0.886887     4.406455
 C    -0.961996    -1.261113     4.107833
 O    -0.652080    -1.640448     5.363422
 C    -0.449124    -0.652671     6.334295
 H    -1.360479    -0.053679     6.508096
 H    -0.184682    -1.173070     7.263350
 H     0.376107     0.027486     6.058147
