 108
scf done:    -2467.450835
 C     1.071745    -3.499851     0.313918
 H     1.709464    -3.881288    -0.489093
 H     1.560485    -3.476055     1.292736
 C    -0.330381    -3.689553     0.239770
 H    -0.756253    -4.200519    -0.629971
 H    -0.905616    -3.824267     1.159197
 H     0.063025    -1.467005     1.436491
Rh     0.120152    -1.614969    -0.151285
 C     2.433739     0.032689     1.811957
 C     3.600343    -0.968406    -0.652534
 C     2.001351     1.482058    -0.700004
 C    -2.461267     0.163134    -1.705381
 C    -3.259042    -1.868686     0.335692
 C    -2.260695     0.856824     1.143504
 P    -1.973125    -0.564698    -0.035446
 P     2.003866    -0.237396     0.011393
 C     0.082194    -1.807754    -2.041735
 O     0.008842    -1.926751    -3.183828
 H     2.352252    -0.974986     2.244725
 H     1.592549     0.607130     2.226705
 C     3.744656     0.661287     2.159065
 C     3.920429     2.051787     2.128862
 H     3.068453     2.696520     1.899202
 C     4.846343    -0.136703     2.495879
 H     4.722555    -1.221869     2.548319
 C     5.165848     2.621737     2.382521
 H     5.281878     3.707787     2.347239
 C     6.092950     0.429684     2.750256
 H     6.939556    -0.213330     3.003008
 C     6.260682     1.812243     2.684008
 H     7.238344     2.258712     2.879431
 H     3.893147    -1.646193     0.172739
 C     4.757732     0.010196    -0.887855
 H     4.916668     0.667721    -0.024065
 H     4.509718     0.665233    -1.740589
 C     6.046937    -0.740503    -1.208920
 H     6.864934    -0.021647    -1.379640
 H     6.340703    -1.338630    -0.327225
 C     5.877597    -1.656026    -2.415123
 H     6.802169    -2.226274    -2.602356
 H     5.707152    -1.037023    -3.314892
 C     4.695190    -2.599891    -2.229834
 H     4.918722    -3.306849    -1.409889
 H     4.544314    -3.212413    -3.133639
 C     3.412413    -1.846617    -1.892069
 H     3.117618    -1.221408    -2.752744
 H     2.586911    -2.550400    -1.728268
 H     2.979225     1.936342    -0.461671
 C     0.896399     2.341846    -0.093880
 H     0.985896     2.395769     1.002489
 H    -0.063646     1.838195    -0.293493
 C     0.877910     3.749323    -0.681979
 H     0.043952     4.326177    -0.247398
 H     1.803280     4.275813    -0.385838
 C     0.776785     3.728585    -2.203291
 H     0.837220     4.752585    -2.606052
 H    -0.214020     3.340939    -2.499933
 C     1.853369     2.845075    -2.819863
 H     2.845822     3.298792    -2.645427
 H     1.724610     2.789807    -3.912878
 C     1.837314     1.442699    -2.220862
 H     0.880766     0.944141    -2.459136
 H     2.622767     0.829405    -2.685279
 H    -2.788109    -0.695619    -2.312229
 H    -1.495012     0.476828    -2.125608
 C    -3.426860     1.307224    -1.805560
 C    -2.988144     2.615204    -1.551212
 H    -1.936992     2.789533    -1.312204
 C    -4.768530     1.130468    -2.166625
 H    -5.133193     0.131770    -2.414143
 C    -3.864320     3.695819    -1.597350
 H    -3.493557     4.701969    -1.386655
 C    -5.649636     2.208664    -2.217620
 H    -6.692325     2.040381    -2.497959
 C    -5.205851     3.495698    -1.919067
 H    -5.897621     4.340377    -1.954158
 H    -2.854605    -2.715429    -0.247912
 C    -4.705869    -1.666873    -0.111285
 H    -4.741403    -1.442271    -1.186059
 H    -5.157126    -0.804972     0.404677
 C    -5.535206    -2.920963     0.162333
 H    -6.582359    -2.750038    -0.136812
 H    -5.160402    -3.742895    -0.474263
 C    -5.460050    -3.350681     1.622501
 H    -6.038189    -4.275652     1.780230
 H    -5.933895    -2.576567     2.253554
 C    -4.014131    -3.539107     2.066764
 H    -3.565800    -4.384009     1.513588
 H    -3.969499    -3.807626     3.134797
 C    -3.192143    -2.281245     1.809595
 H    -3.589507    -1.466210     2.437323
 H    -2.143460    -2.425397     2.110442
 H    -1.829808     1.701739     0.578797
 C    -1.448923     0.749440     2.433918
 H    -0.415721     0.466138     2.192856
 H    -1.844319    -0.070287     3.057259
 C    -1.495774     2.056081     3.217975
 H    -0.921850     1.956292     4.153906
 H    -0.994407     2.846183     2.628374
 C    -2.928749     2.485051     3.512328
 H    -2.942683     3.455684     4.034529
 H    -3.387745     1.754461     4.203107
 C    -3.758602     2.552605     2.236014
 H    -3.377009     3.362331     1.587962
 H    -4.804562     2.811786     2.467651
 C    -3.710645     1.239635     1.458176
 H    -4.176678     0.446702     2.066043
 H    -4.308135     1.329718     0.541451
