 104
scf done:    -2315.116342
 C    -0.668057    -0.840945    -3.413447
 H    -1.052529    -1.852354    -3.581817
 H    -1.319520    -0.048721    -3.794503
 C     0.734411    -0.624908    -3.372443
 H     1.411532    -1.474261    -3.510381
 H     1.143699     0.329829    -3.713744
 H    -0.251896     1.054865    -1.736208
Rh    -0.075288    -0.488604    -1.373141
 C    -3.446898    -1.519762    -0.632001
 C    -2.446591     0.434940     1.230001
 C    -3.094461     1.177816    -1.468622
 C     1.403338     0.120176     1.876703
 C     3.269140    -0.343939    -0.218883
 C     1.823565     2.158664    -0.128777
 P     1.569725     0.333851     0.028669
 P    -2.205615    -0.136606    -0.515567
 C     0.373236    -2.314327    -1.036949
 O     0.786859    -3.381361    -0.941752
 H    -3.538844    -1.727848    -1.709287
 H    -4.418770    -1.140176    -0.280051
 C    -3.081548    -2.766985     0.110375
 C    -3.405938    -2.919651     1.465505
 H    -3.938318    -2.118128     1.984561
 C    -2.412541    -3.813318    -0.534061
 H    -2.153051    -3.708567    -1.590193
 C    -3.080179    -4.087154     2.151743
 H    -3.348827    -4.189601     3.205934
 C    -2.081678    -4.980720     0.149310
 H    -1.554437    -5.781630    -0.373698
 C    -2.420112    -5.124845     1.493541
 H    -2.170509    -6.044454     2.028349
 H    -3.518023     0.425957     1.493950
 H    -1.958252    -0.314936     1.873728
 C    -1.837671     1.809462     1.465720
 H    -0.853001     1.845737     0.970252
 H    -2.444922     2.580117     0.960654
 C    -1.676887     2.180131     2.932998
 H    -1.130641     1.374682     3.457663
 H    -2.669087     2.225959     3.416981
 C    -0.942219     3.497935     3.137947
 H     0.047104     3.434075     2.649094
 H    -1.483210     4.301639     2.607578
 C    -0.765234     3.873645     4.599780
 H    -0.226532     4.826617     4.712758
 H    -0.195477     3.102493     5.142846
 H    -1.738166     3.979434     5.106037
 H    -2.433720     2.058709    -1.423253
 H    -3.057113     0.847844    -2.520107
 C    -4.513955     1.548227    -1.067158
 H    -5.182779     0.677096    -1.172958
 H    -4.547634     1.826677     0.000861
 C    -5.074277     2.699827    -1.892695
 H    -5.039703     2.430849    -2.964048
 H    -4.412674     3.578832    -1.786173
 C    -6.496505     3.088043    -1.513456
 H    -7.152800     2.206146    -1.621064
 H    -6.525519     3.350897    -0.440894
 C    -7.048431     4.239981    -2.337595
 H    -8.076565     4.497020    -2.040942
 H    -7.064257     3.991194    -3.410927
 H    -6.432056     5.145923    -2.220736
 H     0.411334     0.507171     2.145266
 H     2.153455     0.755556     2.371189
 C     1.564261    -1.300427     2.324418
 C     2.785591    -1.741669     2.851024
 H     3.608002    -1.029543     2.963384
 C     0.521725    -2.226800     2.199020
 H    -0.436110    -1.912760     1.778622
 C     2.964570    -3.068131     3.235300
 H     3.925444    -3.389491     3.644886
 C     0.698669    -3.554600     2.580570
 H    -0.128623    -4.255402     2.459558
 C     1.919932    -3.980974     3.098146
 H     2.057551    -5.023404     3.395072
 H     3.935909     0.029957     0.577592
 H     3.180349    -1.432187    -0.064476
 C     3.849820    -0.052628    -1.593256
 H     3.115677    -0.349119    -2.358822
 H     3.993965     1.035589    -1.717879
 C     5.172167    -0.762380    -1.846866
 H     5.026132    -1.851540    -1.729682
 H     5.903929    -0.474009    -1.069695
 C     5.756294    -0.476345    -3.223170
 H     5.016783    -0.760464    -3.992595
 H     5.898418     0.613314    -3.336311
 C     7.070603    -1.193848    -3.484549
 H     7.466523    -0.967392    -4.486217
 H     6.949066    -2.286819    -3.414333
 H     7.838378    -0.902180    -2.749622
 H     1.965717     2.327928    -1.208704
 H     0.848886     2.618715     0.102588
 C     2.933907     2.817635     0.673504
 H     2.791845     2.629937     1.751784
 H     3.907631     2.367122     0.414038
 C     3.004325     4.322713     0.448200
 H     2.028520     4.773626     0.706688
 H     3.149284     4.524691    -0.628580
 C     4.104512     5.008434     1.245927
 H     3.955698     4.798593     2.320220
 H     5.076710     4.553203     0.986023
 C     4.166266     6.510662     1.022079
 H     4.969648     6.977564     1.611734
 H     3.218973     6.995993     1.307477
 H     4.349932     6.749203    -0.037907
