  88
scf done:    -3150.522709
 C    -0.147041    -3.982101    -1.000788
 H    -0.626315    -4.654191    -0.282990
 H    -0.667942    -3.897235    -1.958625
 C     1.248902    -3.771593    -0.948568
 H     1.848927    -4.279983    -0.188535
 H     1.798092    -3.513007    -1.856759
 H     0.235480    -1.521407    -1.666609
Rh     0.237580    -2.019288    -0.152601
 C    -2.889282    -1.471508    -1.636838
 O    -2.874262    -1.259854     0.994885
 O    -1.668628     0.635868    -0.297794
 C     1.961900     0.384181     1.763035
 O     3.335014    -0.625501    -0.248264
 O     1.377148     0.930943    -0.903894
 P     1.722977    -0.345494     0.090612
 P    -1.775139    -1.022102    -0.245026
 C     0.358960    -2.660703     1.656877
 O     0.517036    -3.053215     2.720292
 H    -2.885360    -2.573366    -1.591532
 H    -2.310588    -1.203703    -2.534856
 C    -4.290256    -0.934651    -1.704503
 C    -4.646017    -0.009218    -2.692059
 H    -3.894341     0.323441    -3.411940
 C    -5.271857    -1.357377    -0.799340
 H    -5.011711    -2.084254    -0.028430
 C    -5.936620     0.508879    -2.754970
 H    -6.189058     1.241970    -3.524659
 C    -6.563610    -0.841408    -0.862106
 H    -7.315395    -1.178789    -0.144304
 C    -6.900119     0.098557    -1.835242
 H    -7.912631     0.506327    -1.880792
 C    -2.466410    -1.289022     2.299008
 C    -2.825010    -2.386657     3.081024
 H    -3.407764    -3.190441     2.628130
 C    -1.713099    -0.248545     2.848848
 H    -1.451872     0.609334     2.227026
 C    -2.426178    -2.452186     4.411981
 H    -2.686562    -3.303307     5.043320
 C    -1.302789    -0.316349     4.177612
 H    -0.705982     0.477948     4.629698
 C    -1.661401    -1.419435     4.942386
 F    -1.267484    -1.487261     6.212372
 C    -2.645587     1.537220    -0.636526
 C    -3.804995     1.683078     0.127535
 H    -3.971498     1.035980     0.988701
 C    -2.419851     2.351539    -1.745703
 H    -1.499978     2.219510    -2.318438
 C    -4.757949     2.624443    -0.244943
 H    -5.685865     2.742439     0.316593
 C    -3.367879     3.303248    -2.112794
 H    -3.220578     3.950087    -2.979463
 C    -4.530634     3.419726    -1.362288
 F    -5.451803     4.313527    -1.722513
 H     2.111072    -0.506781     2.396222
 H     0.965056     0.772717     2.022707
 C     3.027209     1.410875     2.020926
 C     2.675161     2.727899     2.336093
 H     1.619213     3.005237     2.381295
 C     4.385836     1.073489     1.978133
 H     4.675806     0.048940     1.741158
 C     3.650986     3.693391     2.567870
 H     3.354128     4.719889     2.795350
 C     5.362808     2.037517     2.211897
 H     6.418336     1.757804     2.168949
 C     5.000586     3.352569     2.500838
 H     5.768264     4.109278     2.678546
 C     3.728570    -1.384176    -1.316755
 C     4.644594    -2.410577    -1.088610
 H     4.998360    -2.586694    -0.071424
 C     3.248789    -1.140253    -2.605248
 H     2.530001    -0.336688    -2.771744
 C     5.083741    -3.200639    -2.146292
 H     5.797816    -4.011705    -1.993650
 C     3.679277    -1.935873    -3.664246
 H     3.315614    -1.771587    -4.680030
 C     4.590392    -2.956697    -3.423000
 F     5.003906    -3.715860    -4.437405
 C     1.868478     2.208507    -0.805816
 C     3.218236     2.489375    -1.024298
 H     3.912778     1.677123    -1.239390
 C     0.966304     3.232781    -0.523197
 H    -0.083116     2.981831    -0.362666
 C     3.670562     3.800541    -0.925271
 H     4.723920     4.047949    -1.064873
 C     1.415608     4.547815    -0.435730
 H     0.732782     5.369029    -0.210734
 C     2.765466     4.812605    -0.627258
 F     3.205055     6.067000    -0.519546
