 108
scf done:    -3063.896356
 C     0.689406    -0.707883     3.199687
 H     1.389240    -1.532625     3.365587
 H     1.063144     0.261997     3.538708
 C    -0.704723    -0.963484     3.158638
 H    -1.076788    -1.984111     3.292071
 H    -1.413743    -0.188332     3.458711
 H    -0.305672     0.905111     1.519959
Rh     0.011338    -0.598459     1.163988
 C     1.397948     1.752611    -1.149679
 C     3.171344     1.110312     0.928713
 C     2.554652    -0.996886    -1.061016
 C    -1.723563    -1.222838    -1.824049
 C    -3.511492    -1.014380     0.362771
 C    -2.160213     1.445197    -0.486708
 P    -1.866786    -0.360145    -0.199973
 P     1.783676     0.337466    -0.038235
 C     0.400133    -2.422577     0.778995
 O     0.647733    -3.529898     0.579526
 H     0.645283     1.398146    -1.862611
 H     0.893958     2.464752    -0.476668
 C     2.573416     2.407917    -1.857739
 H     3.174990     1.640244    -2.369695
 H     3.239622     2.864146    -1.107421
 C     2.126334     3.463914    -2.856939
 H     1.540444     3.011148    -3.673716
 H     1.487226     4.222944    -2.376772
 H     2.982588     3.984194    -3.314017
 C     4.546923     0.860490     0.756258
 O     4.911008     0.186192    -0.349564
 C     6.204368    -0.324077    -0.468988
 H     6.206354    -0.951956    -1.369744
 H     6.957320     0.475866    -0.585834
 H     6.480723    -0.946675     0.400303
 C     2.811318     2.017631     1.946456
 O     1.529277     2.419782     1.938986
 C     0.997935     3.141944     3.007636
 H    -0.075030     3.244522     2.798960
 H     1.446440     4.148113     3.088722
 H     1.128291     2.610924     3.966659
 C     3.744636     2.496348     2.874225
 H     3.437849     3.167901     3.675426
 C     5.491586     1.331182     1.679142
 H     6.549268     1.102248     1.553224
 C     5.076789     2.124899     2.741889
 H     5.813601     2.490692     3.461138
 C     2.334111    -1.197632    -2.434474
 O     1.613152    -0.259172    -3.093803
 C     1.407700    -0.386833    -4.468812
 H     0.852908     0.505927    -4.783360
 H     2.360059    -0.425486    -5.026161
 H     0.811450    -1.282854    -4.716097
 C     3.242314    -2.015181    -0.367056
 O     3.382924    -1.811304     0.955688
 C     3.874633    -2.830392     1.775582
 H     3.815087    -2.452659     2.804090
 H     4.927741    -3.072784     1.545998
 H     3.265427    -3.746062     1.687975
 C     3.736371    -3.151281    -1.011238
 H     4.265548    -3.921737    -0.452081
 C     2.826961    -2.334456    -3.092406
 H     2.654334    -2.475115    -4.158165
 C     3.527718    -3.296412    -2.377827
 H     3.905092    -4.182799    -2.892965
 H    -0.845440    -0.790275    -2.324317
 H    -1.437162    -2.244162    -1.519306
 C    -2.943444    -1.263601    -2.730824
 H    -3.335586    -0.245267    -2.869723
 H    -3.744446    -1.832519    -2.230816
 C    -2.632924    -1.890913    -4.081438
 H    -1.872103    -1.306373    -4.625013
 H    -2.236147    -2.912938    -3.967321
 H    -3.527536    -1.949473    -4.721028
 C    -4.732595    -0.322425     0.233348
 O    -4.727940     0.777780    -0.542545
 C    -5.790010     1.682271    -0.493477
 H    -5.474816     2.559418    -1.074195
 H    -6.710952     1.266967    -0.940436
 H    -6.008639     1.999713     0.541170
 C    -3.551470    -2.271640     1.000094
 O    -2.425340    -3.005467     0.947084
 C    -2.362220    -4.228358     1.625854
 H    -1.352709    -4.621003     1.458988
 H    -3.100160    -4.949889     1.233688
 H    -2.526344    -4.100469     2.709916
 C    -4.717041    -2.738214     1.624099
 H    -4.725880    -3.696613     2.140630
 C    -5.901407    -0.777238     0.857312
 H    -6.831230    -0.216279     0.769096
 C    -5.874875    -1.973676     1.562717
 H    -6.784505    -2.333709     2.049512
 C    -2.538948     2.201262     0.644359
 O    -2.872224     1.480291     1.729075
 C    -3.205903     2.115527     2.925394
 H    -3.423980     1.319514     3.648254
 H    -2.373222     2.729646     3.310532
 H    -4.100033     2.755185     2.817042
 C    -1.903941     2.152791    -1.669798
 O    -1.574075     1.434378    -2.770052
 C    -1.544907     2.063664    -4.017254
 H    -1.421116     1.268847    -4.764486
 H    -0.702938     2.772002    -4.106149
 H    -2.486429     2.600810    -4.225724
 C    -1.967438     3.554778    -1.710394
 H    -1.737281     4.090869    -2.629860
 C    -2.598251     3.596499     0.618861
 H    -2.882768     4.158896     1.507522
 C    -2.301681     4.263863    -0.565918
 H    -2.338330     5.355263    -0.597661
