 100
scf done:    -2462.616056
 C    -1.463259    -1.326687    -3.022805
 H    -2.276328    -2.049436    -2.904899
 H    -1.755894    -0.398569    -3.522986
 C    -0.123220    -1.766753    -3.093480
 H     0.090810    -2.838659    -3.046665
 H     0.623374    -1.183278    -3.638632
 H    -0.087322     0.466158    -1.837076
Rh    -0.491427    -0.908793    -1.134333
 C    -2.531187     1.951906    -1.050115
 C    -3.847430    -0.583298    -0.626556
 C    -2.482266     0.723611     1.495211
 C     1.824894    -1.433883     1.488889
 C     3.016323    -1.221557    -1.070816
 C     2.034059     1.159256     0.171811
 P     1.560110    -0.585151    -0.138108
 P    -2.277247     0.294974    -0.281736
 C    -0.915336    -2.555941    -0.276844
 O    -1.153681    -3.544130     0.260016
 H    -3.557815     2.296767    -0.840425
 H    -2.438728     1.791962    -2.135628
 C    -1.511150     2.970345    -0.562735
 H    -1.703452     3.181927     0.501867
 H    -0.497433     2.533603    -0.609240
 C    -1.520000     4.286325    -1.345392
 H    -2.569253     4.631118    -1.416109
 C    -0.728545     5.350417    -0.593502
 H    -1.164253     5.546504     0.398603
 H    -0.703415     6.302618    -1.146493
 H     0.309978     5.019207    -0.434448
 C    -0.985266     4.106192    -2.762156
 H    -1.004469     5.054772    -3.321156
 H    -1.570348     3.372972    -3.337507
 H     0.056561     3.748005    -2.738247
 C    -4.663442    -0.261884    -1.716744
 H    -4.424832     0.588351    -2.358188
 C    -4.177379    -1.689982     0.164361
 H    -3.539628    -1.951230     1.014405
 C    -5.785341    -1.039921    -1.997080
 H    -6.418584    -0.788154    -2.851479
 C    -5.299472    -2.477696    -0.103985
 C    -5.626694    -3.651483     0.773001
 H    -4.732332    -4.263873     0.963836
 H    -6.007709    -3.319455     1.752699
 H    -6.392706    -4.294980     0.317966
 C    -6.101160    -2.137370    -1.200463
 H    -6.980439    -2.744238    -1.433141
 C    -3.734167     1.040082     2.039663
 H    -4.635270     0.956472     1.426878
 C    -1.344048     0.827718     2.293135
 H    -0.379809     0.579886     1.844000
 C    -3.825313     1.448330     3.366018
 H    -4.801139     1.686779     3.796622
 C    -1.416861     1.255212     3.625578
 C    -0.172737     1.405005     4.452222
 H     0.469110     0.513983     4.384656
 H     0.425648     2.263546     4.106012
 H    -0.409955     1.569823     5.512546
 C    -2.676329     1.556748     4.150573
 H    -2.759789     1.881459     5.191554
 H     1.454203    -2.458170     1.316617
 H     1.102755    -0.983528     2.188724
 C     3.235568    -1.478528     2.054954
 H     3.901398    -1.934750     1.305356
 H     3.621918    -0.455739     2.210871
 C     3.366829    -2.263548     3.363579
 H     2.986229    -3.285266     3.175520
 C     4.834266    -2.376326     3.760862
 H     5.431961    -2.840732     2.961274
 H     4.960373    -2.980816     4.672499
 H     5.262950    -1.379747     3.960051
 C     2.542822    -1.660535     4.495955
 H     2.681357    -2.223552     5.431848
 H     1.465232    -1.662804     4.272487
 H     2.847852    -0.617636     4.689448
 C     2.884590    -2.463175    -1.700239
 H     1.915061    -2.965714    -1.690385
 C     4.255071    -0.571518    -1.101653
 H     4.372508     0.391965    -0.599500
 C     3.978961    -3.041004    -2.338901
 H     3.873040    -4.014632    -2.823774
 C     5.357609    -1.130174    -1.756670
 C     6.668089    -0.399184    -1.812933
 H     6.741451     0.356627    -1.018020
 H     7.519731    -1.088322    -1.711503
 H     6.786360     0.123797    -2.776687
 C     5.203400    -2.378257    -2.371623
 H     6.055338    -2.835178    -2.883268
 C     2.118041     1.712099     1.451072
 H     1.945151     1.098228     2.335457
 C     2.262504     1.987432    -0.937565
 H     2.175129     1.564442    -1.942726
 C     2.428143     3.063868     1.610749
 H     2.485208     3.490262     2.615524
 C     2.604910     3.331929    -0.793816
 C     2.889175     4.193275    -1.989820
 H     2.732788     3.643163    -2.927915
 H     2.239329     5.082230    -2.006093
 H     3.930459     4.553287    -1.979106
 C     2.677949     3.864138     0.502795
 H     2.932788     4.918835     0.639290
