 106
scf done:    -2465.447627
 C     1.197440    -0.854918    -3.334572
 H     1.965914    -0.217143    -3.783031
 H     1.514899    -1.890104    -3.177438
 C    -0.171470    -0.563908    -3.575599
 H    -0.441404     0.293578    -4.199838
 H    -0.897718    -1.382449    -3.603677
 H    -0.048979    -1.526861    -1.221000
Rh     0.317951    -0.013389    -1.555735
 C     1.078590    -1.222398     1.669131
 C     3.284719    -1.367283    -0.205019
 C     2.503635     1.155282     0.919401
 C    -2.459419     2.063988    -1.054125
 C    -3.085839    -0.717005    -1.326605
 C    -2.041193     0.248848     1.152914
 P    -1.774966     0.406249    -0.664348
 P     1.776778    -0.377290     0.191825
 C     0.807413     1.794194    -1.892630
 O     1.116225     2.893071    -2.040855
 C     0.802553    -0.535556     2.854570
 H     1.090178     0.512726     2.947180
 C     0.664531    -2.570586     1.579638
 O     0.953779    -3.210304     0.431337
 C     0.418605    -4.480497     0.187979
 H     0.827687    -5.238140     0.879113
 H     0.700897    -4.744548    -0.838965
 H    -0.681761    -4.478092     0.265727
 C     0.140069    -1.139553     3.922877
 H    -0.061372    -0.571059     4.832964
 C    -0.011791    -3.179638     2.641973
 H    -0.335820    -4.217659     2.565583
 C    -0.267983    -2.463356     3.810703
 H    -0.794215    -2.951511     4.634215
 H     2.908017    -2.319708    -0.604836
 H     3.829778    -1.593194     0.725421
 C     4.159287    -0.664697    -1.234167
 H     3.503111    -0.238253    -2.011273
 H     4.684101     0.190588    -0.770318
 C     5.196039    -1.566905    -1.906227
 H     4.643309    -2.404261    -2.372772
 C     5.918086    -0.809528    -3.014107
 H     5.207837    -0.414067    -3.756758
 H     6.636523    -1.455215    -3.542891
 H     6.480165     0.045649    -2.602314
 C     6.186540    -2.155271    -0.907834
 H     6.927275    -2.796530    -1.410735
 H     5.685842    -2.765711    -0.141252
 H     6.739411    -1.353621    -0.388620
 H     1.647632     1.723908     1.318655
 H     2.841922     1.736108     0.047521
 C     3.616076     1.013959     1.949202
 H     3.368571     0.217561     2.670256
 H     4.541885     0.683066     1.446559
 C     3.911680     2.300229     2.725995
 H     2.977517     2.590303     3.246478
 C     4.976076     2.049852     3.787423
 H     4.679662     1.239139     4.471173
 H     5.163342     2.950874     4.392000
 H     5.931707     1.758312     3.320527
 C     4.310860     3.451706     1.809500
 H     4.531611     4.362061     2.388182
 H     3.519693     3.701759     1.086575
 H     5.216864     3.195784     1.234485
 C    -3.477589     2.251664    -1.992124
 H    -3.945883     1.383557    -2.457803
 C    -1.864893     3.211126    -0.483960
 O    -0.882552     2.992019     0.419642
 C    -0.140482     4.081532     0.893434
 H     0.351119     4.621083     0.066477
 H     0.632312     3.671657     1.556207
 H    -0.765529     4.784525     1.470960
 C    -3.907112     3.525847    -2.364449
 H    -4.703768     3.639183    -3.102531
 C    -2.289608     4.489283    -0.853445
 H    -1.826668     5.373784    -0.416292
 C    -3.310149     4.641955    -1.791794
 H    -3.632042     5.647276    -2.073443
 H    -3.020689    -0.654445    -2.424913
 H    -4.075251    -0.334240    -1.031091
 C    -2.902869    -2.162236    -0.887499
 H    -1.864683    -2.460699    -1.111002
 H    -3.015153    -2.242085     0.209105
 C    -3.869062    -3.151504    -1.543080
 H    -3.774965    -3.031222    -2.638901
 C    -3.474079    -4.582407    -1.196278
 H    -2.448271    -4.805521    -1.528712
 H    -4.147162    -5.314695    -1.668702
 H    -3.517974    -4.746736    -0.105985
 C    -5.320465    -2.881386    -1.161406
 H    -6.000058    -3.608281    -1.632851
 H    -5.648921    -1.876885    -1.467524
 H    -5.455588    -2.958079    -0.068839
 H    -1.275102     0.877761     1.625463
 H    -1.764944    -0.790234     1.391127
 C    -3.423048     0.609102     1.673647
 H    -3.576598     1.693373     1.543691
 H    -4.209371     0.122209     1.069103
 C    -3.652092     0.233728     3.141336
 H    -2.776949     0.590232     3.717006
 C    -4.894038     0.928926     3.686572
 H    -4.810725     2.024130     3.607786
 H    -5.066620     0.677513     4.744884
 H    -5.791315     0.623198     3.122507
 C    -3.751643    -1.276653     3.326139
 H    -3.877193    -1.542600     4.387568
 H    -2.853367    -1.796399     2.962275
 H    -4.621579    -1.676418     2.777376
