  98
scf done:    -2609.172046
 C     1.068307    -3.997626    -1.217577
 H     0.935162    -4.858366    -0.555839
 H     0.324406    -3.925608    -2.014839
 C     2.357715    -3.440814    -1.397940
 H     3.215893    -3.875266    -0.876393
 H     2.612453    -2.952484    -2.342513
 H     0.686970    -1.514359    -1.505964
Rh     1.180546    -2.133843    -0.130637
 O    -1.252416    -0.032914    -0.268209
 O    -2.160828    -2.390305    -0.286902
 O    -1.482958    -1.424317     1.888353
 O     1.382347     0.871509     1.112638
 O     3.653732    -0.068979     0.962660
 O     2.611786     0.807068    -1.109683
 P     2.235750    -0.156843     0.151523
 P    -0.938846    -1.543112     0.349750
 C     1.738073    -3.003840     1.487869
 O     2.061120    -3.558721     2.435900
 C    -2.475938     0.539682    -0.470465
 C    -2.942606     0.655272    -1.777294
 H    -2.339972     0.229767    -2.582440
 C    -3.206702     1.070164     0.594416
 H    -2.829165     0.968237     1.610000
 C    -4.148319     1.309467    -2.050642
 C    -4.626113     1.440584    -3.467096
 H    -3.932608     2.058650    -4.059692
 H    -4.685846     0.456852    -3.958137
 H    -5.620128     1.905971    -3.516981
 C    -4.411167     1.715761     0.328452
 H    -4.991344     2.132271     1.155478
 C    -4.879059     1.836650    -0.979646
 H    -5.824093     2.349766    -1.174631
 C    -3.306874    -2.943036     0.358550
 H    -3.285819    -4.025285     0.148530
 H    -3.222479    -2.800590     1.445048
 C    -4.583760    -2.326665    -0.169871
 H    -5.423546    -2.790807     0.378216
 H    -4.601299    -1.254124     0.086579
 C    -4.782961    -2.499967    -1.668129
 H    -4.761423    -3.576050    -1.917622
 H    -3.922006    -2.050851    -2.189259
 C    -6.075787    -1.877352    -2.167618
 H    -6.955502    -2.339259    -1.690523
 H    -6.105660    -0.800279    -1.939032
 H    -6.190077    -1.994120    -3.256286
 C    -0.626715    -1.101814     2.982755
 H    -0.707272    -1.928944     3.707386
 H     0.415828    -1.048743     2.634773
 C    -1.023537     0.214090     3.612344
 H    -0.285798     0.447042     4.399516
 H    -0.906800     1.009472     2.857653
 C    -2.430095     0.228718     4.195133
 H    -2.482951    -0.487300     5.033999
 H    -3.137042    -0.151758     3.438426
 C    -2.864163     1.608841     4.661277
 H    -2.181818     2.005933     5.429785
 H    -2.863870     2.328888     3.826170
 H    -3.877715     1.594866     5.089778
 C     1.386621     2.241603     1.073460
 C     0.148863     2.870046     0.946147
 H    -0.738827     2.246864     0.837117
 C     2.560349     2.984369     1.173024
 H     3.516776     2.469557     1.270440
 C     0.054031     4.262406     0.919725
 C    -1.284323     4.932041     0.798226
 H    -1.266096     5.729007     0.039411
 H    -2.068560     4.213546     0.520028
 H    -1.579740     5.398646     1.752502
 C     2.469607     4.374889     1.131067
 H     3.382193     4.972515     1.196986
 C     1.235674     5.010097     1.007250
 H     1.187543     6.101841     0.975343
 C     4.677379    -1.027098     0.723760
 H     5.410935    -0.868804     1.528967
 H     4.262041    -2.043698     0.838394
 C     5.330500    -0.883646    -0.637260
 H     6.124919    -1.648180    -0.705667
 H     4.593996    -1.146573    -1.417254
 C     5.903434     0.498564    -0.912979
 H     6.662525     0.736738    -0.146627
 H     5.097805     1.239750    -0.793610
 C     6.511286     0.620769    -2.300377
 H     7.331333    -0.100351    -2.450363
 H     5.757202     0.425945    -3.080404
 H     6.917355     1.628130    -2.477791
 C     2.119102     0.647313    -2.433500
 H     2.913759     1.037790    -3.089405
 H     1.991679    -0.427245    -2.647338
 C     0.816151     1.384597    -2.649976
 H     0.438335     1.113480    -3.652601
 H     0.080366     0.995034    -1.926964
 C     0.920689     2.897645    -2.525033
 H     1.612383     3.281211    -3.296520
 H     1.377810     3.147654    -1.554640
 C    -0.427402     3.588164    -2.646325
 H    -0.896025     3.391935    -3.625266
 H    -1.124622     3.229053    -1.872906
 H    -0.335537     4.678922    -2.531896
