  84
scf done:    -1853.363176
 C    -1.650822    -2.359548    -2.228584
 H    -2.356972    -3.095755    -1.831214
 H    -2.091883    -1.662872    -2.947815
 C    -0.274759    -2.698914    -2.337989
 H     0.060535    -3.693160    -2.026032
 H     0.325008    -2.261950    -3.142445
 H    -0.331418    -0.209562    -1.812421
Rh    -0.539404    -1.336192    -0.694029
 C    -2.484971     1.601451    -0.906205
 C    -3.779691    -0.670214     0.307883
 C    -1.879693     0.922971     1.802373
 C     1.643048     0.863695     0.927262
 C     2.633341    -1.840191     0.806361
 C     2.614097    -0.217939    -1.620398
 P     1.591910    -0.644643    -0.137937
 P    -2.120776     0.129943     0.147578
 C    -0.744715    -2.675276     0.634243
 O    -0.853867    -3.483891     1.446293
 H    -3.337113     2.161009    -0.484045
 H    -2.809132     1.182553    -1.872360
 C    -1.286525     2.519293    -1.094755
 H    -0.997101     2.946508    -0.119308
 H    -0.430723     1.910127    -1.435925
 C    -1.489360     3.675307    -2.077372
 H    -2.369974     4.255670    -1.742102
 C    -0.277224     4.600017    -2.042422
 H    -0.093449     4.987257    -1.027651
 H    -0.405643     5.462168    -2.715000
 H     0.631227     4.061572    -2.361541
 C    -1.757074     3.186471    -3.496394
 H    -1.875334     4.032065    -4.191523
 H    -2.670825     2.577334    -3.561562
 H    -0.919339     2.567419    -3.858944
 H    -4.027932    -1.000152    -0.715586
 H    -3.606430    -1.601899     0.872898
 C    -4.928287     0.119250     0.920559
 H    -5.067655     1.068996     0.376991
 H    -4.676191     0.398407     1.957528
 C    -6.235403    -0.660360     0.915383
 H    -6.539212    -0.921625    -0.110809
 H    -6.138513    -1.602413     1.478322
 H    -7.054217    -0.081867     1.369893
 H    -1.026201     1.610601     1.691505
 H    -2.755691     1.550407     2.042216
 C    -1.591903    -0.064727     2.922725
 H    -0.758275    -0.717192     2.612868
 H    -2.455920    -0.737528     3.061076
 C    -1.254126     0.615937     4.239945
 H    -0.361128     1.254740     4.137682
 H    -2.079160     1.259763     4.584463
 H    -1.049737    -0.118604     5.033662
 H     1.117379     0.556412     1.848251
 H     0.965074     1.567581     0.421848
 C     2.957172     1.544485     1.276212
 H     3.683512     0.802893     1.649430
 H     3.404095     1.982769     0.366656
 C     2.816220     2.652790     2.325758
 H     2.392483     2.189499     3.237565
 C     4.183719     3.223859     2.682091
 H     4.870554     2.437052     3.031263
 H     4.109329     3.982913     3.476108
 H     4.647455     3.705169     1.804777
 C     1.864017     3.757780     1.879483
 H     1.814294     4.563203     2.628273
 H     0.838717     3.388081     1.727744
 H     2.200137     4.206146     0.928994
 H     3.625948    -1.404484     1.011517
 H     2.131121    -1.961656     1.782234
 C     2.772530    -3.195841     0.125199
 H     3.274115    -3.070404    -0.849929
 H     1.767857    -3.580495    -0.111157
 C     3.535841    -4.204821     0.968250
 H     4.555151    -3.852971     1.195986
 H     3.025346    -4.384348     1.927988
 H     3.624633    -5.173343     0.453070
 H     2.294713    -0.930867    -2.397561
 H     2.231727     0.762326    -1.956776
 C     4.134263    -0.205166    -1.515899
 H     4.491498    -1.207170    -1.226331
 H     4.462418     0.472503    -0.713135
 C     4.794350     0.202496    -2.825194
 H     4.507587    -0.476935    -3.643695
 H     4.493846     1.219782    -3.123612
 H     5.892222     0.187757    -2.747091
