 102
scf done:    -2688.681488
 C     1.948182    -2.605620    -2.429287
 H     2.650910    -2.270526    -3.199301
 H     2.390505    -3.302956    -1.711220
 C     0.567166    -2.696404    -2.743230
 H     0.231084    -2.421712    -3.748039
 H    -0.061419    -3.446375    -2.255149
 H     0.639871    -2.067674    -0.310485
Rh     0.879526    -0.999201    -1.460275
 C     3.401988    -1.014559     1.191682
 C     3.798229     0.882309    -0.785400
 C     1.645926     1.342177     1.011425
 C    -1.633652     1.386658    -1.441102
 C    -2.624139    -1.299598    -1.286243
 C    -1.487072    -0.209746     1.087251
 P    -1.203638    -0.284442    -0.723346
 P     2.380963     0.007470    -0.002843
 C     1.069641     0.257211    -2.880966
 O     1.151101     1.014488    -3.740977
 H     4.115595    -1.508240     0.512848
 H     3.982330    -0.305162     1.801819
 C     2.728065    -2.039183     2.053843
 C     2.671874    -1.888432     3.445705
 H     3.133207    -1.014908     3.914443
 C     2.171168    -3.189174     1.487534
 H     2.234221    -3.325882     0.406768
 C     2.049742    -2.851442     4.234976
 H     2.019684    -2.727374     5.320390
 C     1.516464    -4.153500     2.260835
 C     0.873172    -5.335083     1.596071
 H     1.576399    -5.847053     0.921395
 H     0.507758    -6.066697     2.330117
 H     0.015782    -5.014657     0.981350
 C     1.462778    -3.970801     3.646670
 H     0.964998    -4.718442     4.270346
 C     4.481816     1.919488    -0.137620
 H     4.136567     2.273882     0.837298
 C     4.265400     0.451385    -2.029982
 H     3.742603    -0.362061    -2.538679
 C     5.590776     2.514101    -0.730137
 H     6.106867     3.326076    -0.209648
 C     5.380784     1.045834    -2.615160
 H     5.727819     0.692177    -3.590030
 C     6.059307     2.091588    -1.981190
 C     7.233443     2.762645    -2.630983
 H     7.729375     2.098530    -3.353181
 H     6.914609     3.664763    -3.179675
 H     7.978612     3.081269    -1.887280
 C     1.288058     1.176626     2.352488
 H     1.531358     0.253035     2.876103
 C     1.292454     2.538984     0.372712
 H     1.571832     2.697520    -0.673254
 C     0.578501     2.168062     3.025140
 H     0.292634     2.002816     4.067235
 C     0.593332     3.529339     1.054352
 H     0.338744     4.459006     0.536709
 C     0.203642     3.354182     2.388287
 C    -0.635677     4.376824     3.094084
 H    -0.356822     4.471526     4.153950
 H    -0.550385     5.368063     2.625719
 H    -1.699810     4.085385     3.063774
 H    -0.792668     2.031676    -1.148837
 H    -1.520812     1.202934    -2.521751
 C    -2.939684     2.071499    -1.165737
 C    -4.160972     1.556180    -1.615802
 H    -4.184677     0.631554    -2.194801
 C    -2.948070     3.273140    -0.444762
 H    -1.994991     3.678191    -0.092396
 C    -5.349871     2.217046    -1.314822
 H    -6.299156     1.800273    -1.660493
 C    -4.131139     3.950090    -0.138068
 C    -4.100336     5.245760     0.620734
 H    -3.182162     5.340559     1.218495
 H    -4.135076     6.107529    -0.066650
 H    -4.962083     5.337231     1.298503
 C    -5.340415     3.397948    -0.576888
 H    -6.281933     3.902641    -0.342535
 C    -2.678651    -1.661023    -2.638937
 H    -1.849706    -1.390082    -3.297648
 C    -3.676399    -1.680744    -0.450343
 H    -3.658386    -1.408594     0.606857
 C    -3.770994    -2.354949    -3.144585
 H    -3.797876    -2.615877    -4.206531
 C    -4.761299    -2.392301    -0.960795
 H    -5.576668    -2.677559    -0.289932
 C    -4.833987    -2.736943    -2.313347
 C    -5.992968    -3.518560    -2.858674
 H    -5.726919    -4.581491    -2.983907
 H    -6.862219    -3.473181    -2.187359
 H    -6.301612    -3.144685    -3.846513
 C    -2.299733     0.740224     1.716343
 H    -2.797541     1.514435     1.136679
 C    -0.901919    -1.204254     1.881979
 H    -0.254170    -1.950771     1.418406
 C    -2.495933     0.706951     3.095246
 H    -3.131614     1.467189     3.558849
 C    -1.116346    -1.242582     3.255108
 H    -0.639561    -2.032536     3.840331
 C    -1.906870    -0.279049     3.891778
 C    -2.084829    -0.289376     5.381390
 H    -2.989742     0.255733     5.686039
 H    -2.151473    -1.315454     5.772283
 H    -1.226941     0.191116     5.882180
