  88
scf done:    -4143.360971
 C    -1.049800    -1.673763    -3.182862
 H    -1.729720    -2.529973    -3.144530
 H    -1.496961    -0.776500    -3.619691
 C     0.346852    -1.888913    -3.289645
 H     0.728004    -2.914396    -3.335924
 H     0.972572    -1.154652    -3.804527
 H     0.111566     0.203440    -1.909374
Rh    -0.123394    -1.241967    -1.283753
 C    -1.864471    -0.395892     1.753110
 C    -1.931258     1.628598    -0.263119
 C    -3.538067    -0.716159    -0.509854
 C     2.322300    -1.702224     1.219292
 C     3.295600    -0.355486    -1.097894
 C     1.550228     1.052086     0.685564
 P     1.750894    -0.576046    -0.131575
 P    -1.825271    -0.194926    -0.084606
 C    -0.222394    -3.026324    -0.623616
 O    -0.211377    -4.116647    -0.260412
 H    -2.803264     0.038944     2.136021
 H    -1.031979     0.214049     2.136100
 C    -1.726750    -1.838043     2.208143
 H    -2.486334    -2.461319     1.705779
 H    -0.750911    -2.230749     1.875886
 C    -1.853485    -2.037627     3.720887
 H    -2.862400    -1.694513     4.018070
 C    -1.739878    -3.518585     4.062775
 H    -2.489650    -4.115318     3.520896
 H    -1.880183    -3.695870     5.140138
 H    -0.745459    -3.907876     3.786547
 C    -0.833266    -1.219087     4.505374
 H    -0.929830    -1.398970     5.587024
 H    -0.949437    -0.137093     4.340972
 H     0.195306    -1.495420     4.218577
 C    -2.112283     2.502256     0.813942
 H    -2.214231     2.121508     1.830571
 C    -1.803187     2.172222    -1.548937
 H    -1.647105     1.502658    -2.397949
 C    -2.139931     3.882751     0.624223
 H    -2.243922     4.561065     1.471775
 C    -1.837588     3.545168    -1.755743
 H    -1.727664     3.964444    -2.757144
 C    -1.991101     4.396196    -0.659945
Cl    -1.961584     6.110542    -0.898715
 C    -3.763554    -2.036681    -0.914097
 H    -2.912641    -2.711017    -1.031716
 C    -4.633684     0.148642    -0.396398
 H    -4.481263     1.187779    -0.094290
 C    -5.049816    -2.495695    -1.182699
 H    -5.223637    -3.526574    -1.495114
 C    -5.923845    -0.292324    -0.675312
 H    -6.776691     0.383720    -0.595195
 C    -6.124820    -1.616614    -1.063389
Cl    -7.727476    -2.171815    -1.409898
 H     2.347855    -2.698152     0.745920
 H     1.487314    -1.745461     1.937505
 C     3.652049    -1.403795     1.892869
 H     4.436158    -1.350053     1.120730
 H     3.629512    -0.405046     2.363999
 C     4.073636    -2.437045     2.942328
 H     4.121249    -3.419964     2.436777
 C     5.467985    -2.111025     3.464985
 H     6.201672    -2.055143     2.645967
 H     5.817501    -2.871236     4.180400
 H     5.473784    -1.137896     3.984027
 C     3.074836    -2.550744     4.088885
 H     3.425510    -3.264041     4.850404
 H     2.087687    -2.899084     3.749485
 H     2.936450    -1.576359     4.588378
 C     3.556988    -1.273878    -2.120769
 H     2.806945    -2.033842    -2.352617
 C     4.246307     0.633914    -0.819433
 H     4.065848     1.358848    -0.022584
 C     4.742231    -1.218408    -2.847573
 H     4.946167    -1.935163    -3.644624
 C     5.429550     0.710459    -1.548685
 H     6.168889     1.484606    -1.336998
 C     5.671915    -0.220250    -2.558350
Cl     7.142771    -0.131315    -3.466645
 C     1.398037     1.192709     2.068865
 H     1.478924     0.326385     2.727844
 C     1.425463     2.195212    -0.118898
 H     1.511120     2.103453    -1.204551
 C     1.129722     2.436300     2.640050
 H     1.004579     2.539424     3.719206
 C     1.177973     3.443481     0.437022
 H     1.072633     4.327899    -0.192939
 C     1.024043     3.555014     1.819164
Cl     0.666068     5.099120     2.516086
