 100
scf done:    -2311.262931
 C     1.836920    -3.110882    -1.015974
 H     2.535616    -3.135226    -1.857423
 H     2.299608    -3.309006    -0.045329
 C     0.472241    -3.430672    -1.220747
 H     0.128945    -3.711508    -2.221201
 H    -0.109160    -3.871381    -0.406864
 H     0.517945    -1.633312     0.577607
Rh     0.686975    -1.288413    -0.964636
 C     2.201238     0.545917     1.625050
 O     3.722686    -0.070115    -0.587569
 O     1.929341     1.762090    -0.787698
 C    -1.515469     1.467888    -0.763866
 O    -2.581593    -0.708340    -1.776310
 O    -2.037357    -0.754196     0.752908
 P    -1.372713    -0.360655    -0.704826
 P     2.154331     0.235208    -0.187519
 C     0.916338    -0.885392    -2.827219
 O     1.065887    -0.626937    -3.933272
 H     3.053033     1.187360     1.903740
 H     2.369597    -0.441294     2.082764
 C     0.894750     1.162557     2.106173
 H     0.716732     2.091943     1.540210
 H     0.062023     0.482127     1.857042
 C     0.842646     1.484496     3.600731
 H     1.708935     2.131934     3.836908
 C    -0.425963     2.270658     3.913087
 H    -0.477823     3.200832     3.325087
 H    -0.483807     2.541039     4.978724
 H    -1.321320     1.674629     3.671173
 C     0.938951     0.231826     4.463993
 H     0.883870     0.481387     5.534900
 H     1.881917    -0.311633     4.301219
 H     0.111563    -0.459931     4.236424
 C     4.906196     0.161533     0.152397
 H     5.684561     0.405345    -0.590127
 H     4.806624     1.040116     0.812234
 C     5.313676    -1.061873     0.950890
 H     6.235107    -0.817718     1.509341
 H     4.541574    -1.268924     1.712627
 C     5.527790    -2.299624     0.091706
 H     6.349314    -2.106103    -0.620698
 H     4.626163    -2.457896    -0.520352
 C     5.828825    -3.547299     0.904603
 H     6.734875    -3.423145     1.520063
 H     4.997329    -3.785982     1.587572
 H     5.983966    -4.423057     0.256714
 C     2.867258     2.806413    -0.610858
 H     3.134785     2.911669     0.458707
 H     3.791693     2.567500    -1.164349
 C     2.266863     4.100417    -1.113953
 H     3.049913     4.878214    -1.081616
 H     1.999712     3.969561    -2.176757
 C     1.046636     4.554214    -0.326221
 H     1.327646     4.682828     0.734861
 H     0.298548     3.746315    -0.345675
 C     0.432485     5.838846    -0.855826
 H     1.152538     6.672544    -0.826679
 H     0.108170     5.722140    -1.902489
 H    -0.448022     6.137835    -0.267888
 H    -0.675283     1.786620    -1.401868
 H    -1.243441     1.795472     0.252164
 C    -2.815757     2.099480    -1.240638
 H    -2.989601     1.791910    -2.283189
 H    -3.677077     1.709888    -0.673588
 C    -2.824978     3.627879    -1.145024
 H    -1.913463     4.001543    -1.648348
 C    -4.032259     4.199223    -1.879414
 H    -4.041017     3.892875    -2.936847
 H    -4.041341     5.299869    -1.845709
 H    -4.971679     3.844689    -1.422905
 C    -2.795462     4.112151     0.301298
 H    -2.801680     5.211895     0.353693
 H    -1.902653     3.763552     0.842508
 H    -3.681036     3.749684     0.850459
 C    -2.614150    -1.953194    -2.458904
 H    -3.268751    -1.794790    -3.331015
 H    -1.602827    -2.192760    -2.827075
 C    -3.129535    -3.088019    -1.597101
 H    -3.021939    -4.024520    -2.172757
 H    -2.464627    -3.189660    -0.722306
 C    -4.571919    -2.925781    -1.141702
 H    -5.228690    -2.863992    -2.027637
 H    -4.677696    -1.957573    -0.626129
 C    -5.039421    -4.049284    -0.231365
 H    -4.981290    -5.026255    -0.737854
 H    -4.412773    -4.114861     0.672895
 H    -6.080736    -3.904596     0.094573
 C    -3.256400    -0.221545     1.235698
 H    -3.088493     0.806740     1.609270
 H    -3.999001    -0.166261     0.422070
 C    -3.766388    -1.110712     2.348928
 H    -4.734098    -0.707992     2.696485
 H    -3.976926    -2.108369     1.927148
 C    -2.800025    -1.243329     3.516479
 H    -2.621311    -0.244798     3.953552
 H    -1.827443    -1.582183     3.123919
 C    -3.288448    -2.195470     4.594922
 H    -4.251152    -1.866513     5.018980
 H    -3.437275    -3.210058     4.191498
 H    -2.568554    -2.271038     5.423977
