  90
scf done:    -3300.926045
 C    -0.324154     3.670508    -1.772318
 H    -0.883985     3.699122    -2.711324
 H    -0.852983     4.084326    -0.910680
 C     1.082035     3.632510    -1.787910
 H     1.625697     3.635821    -2.736476
 H     1.648368     4.020301    -0.937765
 H     0.343063     2.165367     0.171199
Rh     0.345881     1.636507    -1.324323
 O    -2.353207     1.077343     0.621806
 O    -2.566779     0.188778    -1.778999
 O    -1.143606    -0.991579     0.019346
 O     2.565878    -0.889965    -1.337480
 O     3.577714     1.345148    -0.703172
 O     2.186850    -0.030066     0.936001
 P     2.146163     0.520028    -0.623934
 P    -1.426683     0.496547    -0.623144
 C     0.310238     1.032276    -3.162291
 O     0.266042     0.658424    -4.239493
 C    -2.599700     2.427101     0.733954
 C    -3.436595     3.065331    -0.176642
 H    -3.882215     2.486558    -0.988979
 C    -1.993972     3.126864     1.773758
 H    -1.331388     2.599183     2.459963
 C    -3.681907     4.438801    -0.065075
 C    -4.546361     5.135487    -1.074757
 H    -5.444566     4.545888    -1.311206
 H    -4.867733     6.123732    -0.717659
 H    -3.998023     5.284849    -2.019532
 C    -2.243163     4.490731     1.892688
 H    -1.776255     5.054206     2.703915
 C    -3.076426     5.141244     0.982854
 H    -3.259470     6.213801     1.085643
 C    -3.580352    -0.738787    -1.725384
 C    -4.568405    -0.698195    -0.740150
 H    -4.542500     0.078527     0.023947
 C    -3.601809    -1.724853    -2.710224
 H    -2.823256    -1.721213    -3.475256
 C    -5.556660    -1.677544    -0.718021
 H    -6.329795    -1.683564     0.052005
 C    -4.595776    -2.698997    -2.696382
 H    -4.634001    -3.485613    -3.452015
 C    -5.555147    -2.669702    -1.691288
 F    -6.497711    -3.610493    -1.663813
 C    -1.976411    -1.856784     0.693860
 C    -2.243610    -3.093735     0.108497
 H    -1.828274    -3.316218    -0.875124
 C    -2.481938    -1.544758     1.955605
 H    -2.258782    -0.574826     2.397310
 C    -3.049151    -4.015031     0.768339
 H    -3.285847    -4.983698     0.325194
 C    -3.289050    -2.466723     2.618147
 H    -3.708325    -2.247706     3.601817
 C    -3.567769    -3.687356     2.015893
 F    -4.344996    -4.564284     2.649061
 C     2.797351    -2.117575    -0.750653
 C     1.750525    -2.804065    -0.141903
 H     0.764810    -2.336609    -0.107785
 C     4.075673    -2.662575    -0.820889
 H     4.877413    -2.099381    -1.300071
 C     1.971553    -4.059974     0.432116
 C     0.842133    -4.803719     1.085371
 H     0.177234    -4.125966     1.640743
 H     0.217417    -5.314237     0.333773
 H     1.214147    -5.570105     1.779960
 C     4.294996    -3.917987    -0.259509
 H     5.294210    -4.357884    -0.302699
 C     3.258197    -4.607916     0.365516
 H     3.449146    -5.586970     0.812583
 C     4.806567     0.747538    -0.544706
 C     5.608828     0.575832    -1.672069
 H     5.232931     0.903770    -2.642412
 C     5.253471     0.336243     0.711197
 H     4.615518     0.470478     1.584670
 C     6.863026    -0.015683    -1.549612
 H     7.511471    -0.162164    -2.415169
 C     6.504982    -0.260526     0.836690
 H     6.876823    -0.598794     1.805234
 C     7.293815    -0.430911    -0.294417
 F     8.491215    -1.002527    -0.174007
 C     1.623960     0.592500     2.010333
 C     0.727048    -0.134123     2.792231
 H     0.481722    -1.155927     2.499946
 C     1.957580     1.905677     2.348996
 H     2.656624     2.464535     1.723875
 C     0.162521     0.449411     3.922478
 H    -0.539668    -0.097674     4.554237
 C     1.389731     2.493663     3.476450
 H     1.628116     3.519641     3.761929
 C     0.500640     1.757903     4.250527
 F    -0.051479     2.323942     5.323761
