  86
scf done:    -2451.968507
 C     2.135450    -1.469036    -2.388727
 H     2.068723    -1.574498    -3.474988
 H     3.078214    -1.045481    -2.034781
 C     1.389289    -2.334273    -1.550426
 H     0.767573    -3.110797    -2.004395
 H     1.791066    -2.600670    -0.569105
 H    -0.315247    -1.022851    -2.855538
Rh     0.443644    -0.380536    -1.639911
 C     2.921036    -0.673455     0.954096
 O     2.088954     1.812910     0.577876
 O     0.420616     0.101870     1.559539
 C    -2.260578     0.946580     0.312823
 O    -2.771614    -0.572140    -1.869433
 O    -2.072948    -1.703418     0.333599
 P    -1.643452    -0.487563    -0.674004
 P     1.493053     0.298076     0.336245
 C     0.442497     1.134501    -2.770944
 O     0.422584     1.964940    -3.566298
 C     2.727413    -1.672953     1.910508
 H     1.728344    -1.820001     2.320629
 C     4.206822    -0.526036     0.394041
 O     4.343191     0.402563    -0.569759
 C     5.575496     0.553755    -1.217127
 H     6.368808     0.866415    -0.516420
 H     5.435895     1.339864    -1.969544
 H     5.885757    -0.376711    -1.723337
 C     3.771244    -2.489198     2.342207
 H     3.589419    -3.259453     3.094066
 C     5.260454    -1.338475     0.827259
 H     6.257001    -1.222892     0.401592
 C     5.038965    -2.311115     1.800123
 H     5.871366    -2.939968     2.125097
 C     1.819076     2.898387    -0.316054
 H     0.876892     2.685641    -0.845621
 C     2.930340     3.021589    -1.337382
 H     3.019399     2.093326    -1.916751
 H     3.890232     3.214319    -0.834646
 H     2.717573     3.848392    -2.031282
 C     1.641063     4.154532     0.511421
 H     0.765712     4.074849     1.170310
 H     2.533293     4.336002     1.130275
 H     1.495125     5.022863    -0.148314
 C     0.549799     0.467800     2.938424
 H     1.604095     0.343500     3.244660
 C    -0.330234    -0.499235     3.706684
 H     0.032112    -1.533131     3.614764
 H    -1.351160    -0.469987     3.297570
 H    -0.357635    -0.235841     4.774231
 C     0.141760     1.911427     3.150076
 H     0.825709     2.582729     2.619765
 H    -0.880289     2.081580     2.781782
 H     0.174176     2.158017     4.222224
 C    -1.815133     2.183076    -0.160100
 H    -1.139831     2.181841    -1.017987
 C    -3.158347     0.942769     1.404698
 O    -3.631155    -0.238435     1.842870
 C    -4.519351    -0.273394     2.921417
 H    -4.066945     0.138457     3.840937
 H    -4.759073    -1.331166     3.089009
 H    -5.453463     0.275545     2.706933
 C    -2.208569     3.392635     0.406760
 H    -1.838741     4.336287     0.001380
 C    -3.545282     2.157809     1.989532
 H    -4.227930     2.161620     2.838850
 C    -3.074248     3.371489     1.493970
 H    -3.394606     4.302753     1.967372
 C    -4.180078    -0.603693    -1.618046
 H    -4.346034    -0.877370    -0.560694
 C    -4.767847    -1.678130    -2.511700
 H    -4.295964    -2.650817    -2.315225
 H    -4.594401    -1.426234    -3.568987
 H    -5.851877    -1.773888    -2.347674
 C    -4.781909     0.761738    -1.897535
 H    -4.354270     1.531143    -1.240880
 H    -4.587001     1.051635    -2.941522
 H    -5.871379     0.740256    -1.740784
 C    -1.657510    -3.047158     0.091097
 H    -1.221304    -3.109557    -0.921159
 C    -2.884423    -3.932285     0.177413
 H    -3.631199    -3.646483    -0.575783
 H    -3.347667    -3.838571     1.171800
 H    -2.614311    -4.986796     0.016306
 C    -0.598170    -3.414709     1.107432
 H     0.240006    -2.713002     1.029343
 H    -1.013193    -3.356155     2.125404
 H    -0.222136    -4.434262     0.934714
