 118
scf done:    -3518.819221
 C     0.003331    -2.514473     2.066189
 H     0.817906    -2.383025     2.781212
 H    -1.008362    -2.544162     2.470844
 C     0.258175    -2.944512     0.778317
 H     1.277943    -3.159123     0.451685
 H    -0.546488    -3.364038     0.172636
 H    -0.100689    -1.132346    -0.765721
Rh     0.041512    -0.679949     0.738997
 C    -2.864183    -1.432099    -1.086551
 C    -3.594515     0.098225     1.059616
 C    -1.977877     1.362839    -1.002663
 C     2.058158     1.465082    -1.181066
 C     3.287344     0.259596     1.251580
 C     3.075333    -1.208530    -1.197816
 P     2.085830    -0.046185    -0.134501
 P    -2.070746    -0.172340     0.018556
 C     0.141698     0.465137     2.247699
 O     0.177584     1.214547     3.125020
 C    -3.231048    -1.234757    -2.417357
 H    -3.133540    -0.240302    -2.849005
 C    -3.120399    -2.697844    -0.516310
 O    -2.881703    -2.813401     0.805445
 C    -3.200280    -4.001017     1.467516
 H    -4.266835    -4.260507     1.348353
 H    -2.990708    -3.829830     2.530815
 H    -2.580135    -4.845488     1.118104
 C    -3.743917    -2.270525    -3.199289
 H    -4.012869    -2.083235    -4.241413
 C    -3.619543    -3.746711    -1.296191
 H    -3.790410    -4.728705    -0.854615
 C    -3.916036    -3.532887    -2.641852
 H    -4.305069    -4.357666    -3.244123
 C    -4.797365     0.538147     0.471191
 O    -4.753210     0.793836    -0.849015
 C    -5.901812     1.199849    -1.529206
 H    -5.611900     1.316342    -2.581389
 H    -6.708007     0.448736    -1.460514
 H    -6.281140     2.167934    -1.156569
 C    -3.601848    -0.155450     2.443415
 O    -2.460479    -0.600024     2.992075
 C    -2.335148    -0.698280     4.378535
 H    -1.293953    -0.986417     4.572098
 H    -3.006710    -1.466562     4.803038
 H    -2.533060     0.266270     4.877566
 C    -4.760984     0.044178     3.210976
 H    -4.754454    -0.151891     4.282288
 C    -5.960709     0.728296     1.227468
 H    -6.882765     1.068611     0.757795
 C    -5.925612     0.481396     2.594932
 H    -6.828294     0.629945     3.192825
 C    -2.374172     2.607412    -0.475826
 O    -2.710786     2.616081     0.830361
 C    -3.410952     3.694346     1.372838
 H    -3.702006     3.394702     2.388200
 H    -2.788944     4.605823     1.433466
 H    -4.321885     3.922514     0.792405
 C    -1.389587     1.369929    -2.284782
 O    -0.842156     0.214916    -2.701568
 C    -0.328332     0.118119    -3.998380
 H     0.105114    -0.884347    -4.081067
 H     0.468299     0.858758    -4.172928
 H    -1.120810     0.243450    -4.758566
 C    -1.398053     2.525738    -3.078030
 H    -0.967700     2.509865    -4.077591
 C    -2.387097     3.766568    -1.258809
 H    -2.745125     4.709891    -0.846478
 C    -1.920855     3.705695    -2.568326
 H    -1.928262     4.605047    -3.188519
 C     2.557867     1.454413    -2.480736
 H     3.036867     0.545053    -2.849500
 C     1.446053     2.649755    -0.709890
 O     1.009011     2.633161     0.557924
 C     0.485918     3.793822     1.133864
 H     1.244293     4.596256     1.181855
 H     0.179586     3.516833     2.149492
 H    -0.390560     4.164191     0.577468
 C     2.475946     2.577106    -3.309239
 H     2.889614     2.541135    -4.319769
 C     1.365820     3.775141    -1.531964
 H     0.886186     4.683881    -1.169507
 C     1.880071     3.735985    -2.828599
 H     1.806587     4.624606    -3.460727
 C     3.573954    -0.841116     2.085509
 O     3.104672    -2.036272     1.671728
 C     3.469746    -3.200471     2.352585
 H     3.007343    -4.033985     1.809536
 H     4.565523    -3.336967     2.363647
 H     3.096902    -3.208661     3.391773
 C     3.891578     1.487950     1.583708
 O     3.784958     2.485639     0.691695
 C     4.247322     3.763798     0.997574
 H     3.965913     4.401071     0.148179
 H     5.345927     3.791453     1.116192
 H     3.783673     4.163215     1.917210
 C     4.628652     1.638840     2.767915
 H     5.061414     2.604095     3.027928
 C     4.332613    -0.705672     3.254312
 H     4.527491    -1.565615     3.893410
 C     4.832999     0.544482     3.597165
 H     5.410031     0.662859     4.517352
 C     2.476103    -2.252690    -1.937410
 O     1.163217    -2.151260    -2.184342
 C     0.415392    -3.258610    -2.603752
 H    -0.640143    -2.964442    -2.522075
 H     0.638028    -3.529469    -3.651338
 H     0.594342    -4.135567    -1.960159
 C     4.487960    -1.176668    -1.173965
 O     5.050153    -0.058672    -0.687642
 C     6.389703    -0.054274    -0.289917
 H     6.554379     0.900433     0.226439
 H     7.077611    -0.119300    -1.151406
 H     6.607753    -0.878413     0.410967
 C     5.255478    -2.241811    -1.661954
 H     6.343081    -2.215688    -1.600714
 C     3.235947    -3.324069    -2.429830
 H     2.752280    -4.140118    -2.965777
 C     4.614695    -3.318835    -2.262860
 H     5.207189    -4.153194    -2.646456
