  82
scf done:    -2151.183207
 C     1.987729    -3.185203    -0.264775
 H     2.598025    -3.413561    -1.144668
 H     2.566420    -3.078962     0.658032
 C     0.650531    -3.665524    -0.203959
 H     0.250666    -4.249372    -1.039182
 H     0.214341    -3.920693     0.765967
 H     0.711159    -1.477582     1.035940
Rh     0.643003    -1.537818    -0.546302
 C     1.050041     1.498590     1.058624
 C     3.560512     0.045176     0.553603
 C     2.270341     1.509354    -1.539514
 C    -1.985995     0.784281    -1.165764
 C    -2.921754    -1.844093    -0.867880
 C    -2.059669    -0.407006     1.498682
 P    -1.548208    -0.767101    -0.247624
 P     1.878042     0.369762    -0.136767
 C     0.721544    -1.691151    -2.443006
 O     0.834897    -1.824104    -3.580262
 C     0.252816     2.549686     0.593016
 H     0.210899     2.761466    -0.476071
 C     1.047108     1.237553     2.446985
 O     1.796842     0.198883     2.868615
 C     1.822541    -0.134855     4.227737
 H     2.229079     0.686736     4.843024
 H     2.479532    -1.008823     4.320081
 H     0.819591    -0.402532     4.601403
 C    -0.520786     3.328371     1.453634
 H    -1.135348     4.134607     1.048346
 C     0.283380     2.022977     3.316510
 H     0.289315     1.821839     4.387697
 C    -0.500273     3.063130     2.817726
 H    -1.096177     3.663676     3.509139
 H     3.981673     0.967163     0.987995
 H     3.403246    -0.658627     1.381455
 C     4.495279    -0.564631    -0.483715
 H     4.762551     0.188471    -1.244130
 H     3.955098    -1.363617    -1.019039
 C     5.764443    -1.127754     0.136779
 H     6.328048    -0.350157     0.677436
 H     5.529531    -1.927384     0.857282
 H     6.432369    -1.553612    -0.627549
 H     2.730232     0.863189    -2.306502
 H     1.310149     1.825859    -1.973535
 C     3.147206     2.718994    -1.245847
 H     4.140903     2.384527    -0.905295
 H     2.718524     3.290189    -0.405856
 C     3.303424     3.626835    -2.456924
 H     3.751463     3.087254    -3.306791
 H     2.327013     4.013348    -2.791459
 H     3.946132     4.492323    -2.234316
 C    -1.186089     1.131057    -2.255106
 H    -0.357114     0.467857    -2.503649
 C    -3.076362     1.630486    -0.863787
 O    -3.907968     1.240009     0.123739
 C    -4.937312     2.089500     0.542944
 H    -4.546709     3.059684     0.896190
 H    -5.438461     1.583431     1.378049
 H    -5.675179     2.270553    -0.258062
 C    -1.393513     2.291493    -3.000503
 H    -0.741484     2.525086    -3.844778
 C    -3.272659     2.816227    -1.581994
 H    -4.096523     3.483447    -1.328582
 C    -2.429578     3.145451    -2.642408
 H    -2.601892     4.072170    -3.195304
 H    -3.867129    -1.284166    -0.765752
 H    -2.727140    -1.963276    -1.947241
 C    -3.019241    -3.207151    -0.199194
 H    -3.277904    -3.077165     0.865347
 H    -2.027034    -3.684716    -0.217694
 C    -4.047792    -4.110680    -0.862028
 H    -5.052534    -3.658089    -0.844019
 H    -3.789999    -4.297142    -1.916893
 H    -4.111974    -5.086927    -0.357316
 H    -1.760931     0.633824     1.705409
 H    -3.158270    -0.423768     1.527869
 C    -1.488583    -1.329744     2.565498
 H    -0.391801    -1.242479     2.567487
 H    -1.692013    -2.383054     2.311523
 C    -2.051763    -1.012878     3.942516
 H    -1.847076     0.033844     4.220717
 H    -3.144901    -1.150821     3.974865
 H    -1.614348    -1.661373     4.718037
