 104
scf done:    -2763.409321
 C    -0.819024    -3.631209    -1.168219
 H    -1.689248    -4.095279    -0.695591
 H    -0.910222    -3.495095    -2.249347
 C     0.461755    -3.760452    -0.584426
 H     0.585309    -4.331691     0.340134
 H     1.359890    -3.715776    -1.204306
 H     0.391927    -1.418373    -1.595691
Rh    -0.293064    -1.761107    -0.202894
 C    -1.724380     0.422042    -2.599570
 O    -3.432074    -0.788471    -1.046028
 O    -1.942796     1.063896     0.053840
 C     0.923262     0.593644     2.092387
 O     2.770139    -1.042556     1.166411
 O     1.819460     0.688413    -0.509240
 P     1.315559    -0.423051     0.630736
 P    -1.839245    -0.291459    -0.928677
 C    -1.021730    -2.265182     1.505072
 O    -1.380138    -2.579918     2.546156
 H    -2.683682     0.886036    -2.874291
 H    -1.591527    -0.461469    -3.244294
 C    -0.555331     1.392651    -2.722628
 H    -0.877791     2.376211    -2.343093
 H     0.273448     1.066855    -2.073226
 C    -0.001378     1.552836    -4.140287
 H    -0.848797     1.750054    -4.824188
 C     0.940871     2.750334    -4.194146
 H     0.424908     3.681022    -3.910611
 H     1.360149     2.889709    -5.202713
 H     1.783317     2.613318    -3.495741
 C     0.709359     0.287023    -4.608568
 H     1.085910     0.397841    -5.637200
 H     0.050687    -0.594802    -4.591995
 H     1.568746     0.065528    -3.953961
 C    -3.992021    -1.601743    -0.095409
 C    -4.086206    -1.183401     1.229968
 H    -3.693679    -0.202220     1.506709
 C    -4.478635    -2.847443    -0.488290
 H    -4.386486    -3.148728    -1.532899
 C    -4.654315    -2.018295     2.198417
 C    -4.677639    -1.593178     3.636635
 H    -4.913387    -0.523511     3.738466
 H    -5.413446    -2.166708     4.217629
 H    -3.688018    -1.756708     4.094801
 C    -5.062717    -3.671784     0.468352
 H    -5.450401    -4.649977     0.173726
 C    -5.146577    -3.264962     1.799785
 H    -5.597100    -3.927638     2.543007
 C    -2.622808     2.229177    -0.169165
 C    -3.882465     2.269721    -0.765996
 H    -4.356215     1.338203    -1.079566
 C    -2.013283     3.406731     0.275330
 H    -1.037342     3.349947     0.760203
 C    -4.539541     3.493611    -0.951101
 C    -5.888806     3.520803    -1.609020
 H    -5.824039     3.191355    -2.658535
 H    -6.591986     2.842022    -1.102024
 H    -6.322290     4.530358    -1.599555
 C    -2.667782     4.619773     0.099379
 H    -2.195485     5.541885     0.446717
 C    -3.919454     4.667492    -0.515077
 H    -4.424471     5.627003    -0.650774
 H     0.330695    -0.079817     2.735203
 H     0.197198     1.323350     1.696761
 C     2.038826     1.244199     2.898272
 H     2.722325     0.456493     3.251788
 H     2.643231     1.905382     2.258903
 C     1.536008     2.059871     4.092407
 H     0.932206     1.389369     4.733337
 C     2.720721     2.556666     4.913156
 H     3.351476     1.721622     5.255619
 H     2.390135     3.117442     5.801158
 H     3.355230     3.227809     4.310295
 C     0.650205     3.224824     3.661225
 H     0.342038     3.830646     4.527311
 H    -0.268690     2.887242     3.158328
 H     1.192804     3.885701     2.963939
 C     3.440073    -2.020047     0.481526
 C     3.553462    -1.994870    -0.907816
 H     3.085409    -1.184943    -1.470379
 C     4.025318    -3.045875     1.224270
 H     3.917976    -3.041433     2.310174
 C     4.239053    -3.012331    -1.581825
 C     4.314551    -2.989029    -3.080991
 H     4.732988    -2.037818    -3.445363
 H     4.938234    -3.806715    -3.467876
 H     3.310839    -3.089115    -3.525186
 C     4.719415    -4.049334     0.557617
 H     5.179505    -4.858314     1.130184
 C     4.822504    -4.038924    -0.834044
 H     5.361946    -4.839500    -1.346318
 C     2.590338     1.793724    -0.267745
 C     3.961582     1.669620    -0.056458
 H     4.413675     0.675982    -0.070421
 C     1.976009     3.046788    -0.274130
 H     0.904900     3.114041    -0.469084
 C     4.741445     2.803008     0.200336
 C     6.211940     2.657454     0.464183
 H     6.390398     2.121669     1.410353
 H     6.703973     2.077249    -0.331466
 H     6.709073     3.634949     0.531809
 C     2.750060     4.175781    -0.025422
 H     2.280794     5.162578    -0.023068
 C     4.118092     4.055906     0.219339
 H     4.714858     4.949571     0.418503
