  86
scf done:    -2603.352591
 C    -0.408773    -3.977169    -0.665084
 H    -0.830577    -4.521769     0.184918
 H    -1.069036    -3.920449    -1.534549
 C     0.991641    -3.892343    -0.830169
 H     1.662732    -4.368600    -0.109236
 H     1.417805    -3.771428    -1.829463
 H     0.049270    -1.663929    -1.640654
Rh     0.249065    -1.991896    -0.095164
 O    -1.923136     0.257347    -1.195780
 C    -3.195159    -1.854967    -0.066646
 C    -2.028918     0.223675     1.536736
 O     2.183422     0.358893     1.194835
 C     3.656295    -1.406459    -0.226649
 C     2.187174     0.667048    -1.530432
 P     2.025576    -0.583939    -0.212412
 P    -1.692272    -0.828628     0.081834
 C     0.502682    -2.432916     1.754772
 O     0.659422    -2.696798     2.858056
 C    -2.688838     1.388818    -1.108568
 C    -4.057417     1.343867    -1.367954
 H    -4.516849     0.387202    -1.623411
 C    -2.071691     2.596172    -0.776373
 H    -0.998224     2.610442    -0.585421
 C    -4.837253     2.503180    -1.281357
 C    -6.307411     2.447576    -1.581615
 H    -6.486904     2.451187    -2.669621
 H    -6.765373     1.530696    -1.181537
 H    -6.838722     3.311043    -1.156968
 C    -2.841791     3.750357    -0.687755
 H    -2.365662     4.696367    -0.418143
 C    -4.213974     3.705706    -0.931366
 H    -4.811064     4.617743    -0.850886
 C    -3.747969    -2.480160     1.057457
 C    -3.697679    -2.161424    -1.337133
 C    -5.315231    -3.662565    -0.352481
 C    -4.756598    -3.055463    -1.477114
 C    -4.805243    -3.376004     0.913434
 H    -3.350665    -2.264250     2.052925
 H    -5.234290    -3.853162     1.797878
 H    -6.144676    -4.364975    -0.463256
 H    -5.145136    -3.283698    -2.472698
 H    -3.248840    -1.693867    -2.217024
 C    -3.316898     0.664213     1.875991
 C    -0.928436     0.695326     2.261272
 C    -2.390725     2.044864     3.628022
 C    -1.109542     1.605141     3.302211
 C    -3.494071     1.570298     2.916712
 H    -4.183153     0.303175     1.318524
 H    -4.499656     1.913797     3.170441
 H    -2.533464     2.759644     4.442388
 H    -0.241290     1.971068     3.855089
 H     0.077455     0.358499     1.997157
 C     2.664360     1.639064     1.209875
 C     1.796575     2.686881     0.908337
 H     0.759250     2.449280     0.667274
 C     3.996336     1.896431     1.536093
 H     4.664823     1.066744     1.770064
 C     2.243080     4.009932     0.893281
 C     1.299577     5.111766     0.507251
 H     1.085303     5.076040    -0.573839
 H     0.336902     5.014174     1.032692
 H     1.716431     6.102883     0.734343
 C     4.443925     3.215471     1.538387
 H     5.484843     3.429822     1.792907
 C     3.581750     4.262211     1.213813
 H     3.951901     5.290688     1.210998
 C     4.315586    -1.688689     0.974894
 C     4.180733    -1.896233    -1.429413
 C     6.020876    -2.904926    -0.230959
 C     5.359422    -2.637679    -1.429893
 C     5.495026    -2.431027     0.970179
 H     3.894637    -1.325815     1.915469
 H     6.005211    -2.642816     1.913084
 H     6.945358    -3.487171    -0.233224
 H     5.764697    -3.009952    -2.373919
 H     3.664638    -1.692038    -2.371572
 C     1.033609     1.083305    -2.202593
 C     3.405286     1.316133    -1.780475
 C     2.301675     2.802741    -3.330181
 C     3.459504     2.380101    -2.675199
 C     1.092032     2.150691    -3.098083
 H     0.084675     0.576571    -2.012027
 H     0.183192     2.472900    -3.611889
 H     2.346153     3.641839    -4.029192
 H     4.409985     2.886858    -2.857315
 H     4.312011     0.995869    -1.263517
