 108
scf done:    -2167.620323
 C     0.813929    -3.732197    -0.237585
 H     1.659083    -4.006451    -0.877455
 H     0.945335    -4.007339     0.813330
 C    -0.496567    -3.686227    -0.786391
 H    -0.649478    -3.924187    -1.843751
 H    -1.351154    -3.932903    -0.150326
 H    -0.437047    -1.851043     0.979909
Rh     0.227555    -1.678310    -0.466849
 C     1.908650    -0.736974     2.518007
 C     3.642072    -1.226550     0.358051
 C     2.099420     1.210009     0.364500
 C    -1.049396     1.269790    -1.910649
 C    -3.067644    -0.771897    -1.373519
 C    -1.949281     0.735338     0.813063
 P    -1.459381    -0.116278    -0.748487
 P     1.931227    -0.606961     0.675798
 C     0.862432    -1.475940    -2.243246
 O     1.172153    -1.326270    -3.342168
 H     2.856485    -0.343647     2.925149
 H     1.898913    -1.821298     2.713903
 C     0.716555    -0.062746     3.173880
 H     0.735182     1.017101     2.942957
 H    -0.204382    -0.461295     2.716958
 C     0.621875    -0.223203     4.693098
 H     1.562303     0.158435     5.134591
 C    -0.526618     0.623342     5.231896
 H    -0.405127     1.685284     4.965284
 H    -0.598756     0.557250     6.328516
 H    -1.489851     0.285560     4.813999
 C     0.462064    -1.680916     5.109882
 H     0.369913    -1.773276     6.203130
 H     1.317392    -2.298864     4.798677
 H    -0.444817    -2.117058     4.658282
 H     3.644418    -2.279766     0.686036
 H     4.333123    -0.682608     1.022755
 C     4.078992    -1.132727    -1.094660
 H     3.405860    -1.756191    -1.702945
 H     3.949397    -0.099397    -1.467341
 C     5.524831    -1.560865    -1.360276
 H     5.654384    -2.573538    -0.933563
 C     5.779879    -1.647093    -2.860747
 H     5.079519    -2.342351    -3.348659
 H     6.804058    -1.988557    -3.077247
 H     5.650522    -0.660111    -3.335802
 C     6.536056    -0.634871    -0.692520
 H     7.568313    -0.959135    -0.896412
 H     6.413240    -0.600183     0.400564
 H     6.430531     0.395161    -1.074350
 H     1.135062     1.651260     0.669951
 H     2.124934     1.305636    -0.732829
 C     3.254524     1.954862     1.013526
 H     3.280983     1.731650     2.093992
 H     4.213134     1.587882     0.604570
 C     3.201017     3.476303     0.839144
 H     2.249811     3.824790     1.285445
 C     4.344575     4.137910     1.599152
 H     4.330508     3.865574     2.666149
 H     4.292469     5.235539     1.530735
 H     5.319339     3.825137     1.188813
 C     3.208136     3.892832    -0.627690
 H     3.201883     4.989104    -0.728229
 H     2.333457     3.508296    -1.173644
 H     4.111736     3.516959    -1.137085
 H    -0.387556     0.838816    -2.678439
 H    -0.407411     1.938139    -1.313397
 C    -2.168128     2.044370    -2.594750
 H    -2.720223     1.361325    -3.261277
 H    -2.905308     2.409136    -1.860254
 C    -1.678927     3.237440    -3.423248
 H    -0.913554     2.860967    -4.127977
 C    -2.825969     3.818954    -4.241826
 H    -3.275544     3.060387    -4.901329
 H    -2.487877     4.655892    -4.872270
 H    -3.623007     4.200927    -3.581895
 C    -1.031955     4.315463    -2.559371
 H    -0.700667     5.168266    -3.171615
 H    -0.150513     3.943712    -2.015220
 H    -1.748505     4.700507    -1.813760
 H    -2.829531    -1.287664    -2.319376
 H    -3.750948     0.057030    -1.615878
 C    -3.703770    -1.746254    -0.391196
 H    -2.915925    -2.412081    -0.002814
 H    -4.096499    -1.191567     0.480897
 C    -4.832861    -2.597513    -0.974629
 H    -4.413172    -3.150573    -1.836159
 C    -5.305308    -3.620681     0.051431
 H    -4.474673    -4.257579     0.393209
 H    -6.086526    -4.276918    -0.362756
 H    -5.727713    -3.119518     0.938731
 C    -5.996247    -1.751315    -1.479558
 H    -6.803580    -2.382618    -1.882297
 H    -5.688943    -1.059602    -2.278460
 H    -6.423646    -1.148013    -0.660208
 H    -1.021012     1.170077     1.215800
 H    -2.192410    -0.094433     1.494292
 C    -3.055211     1.778171     0.802320
 H    -2.717101     2.663840     0.240086
 H    -3.944605     1.397937     0.267958
 C    -3.486514     2.229288     2.202950
 H    -2.571321     2.521115     2.752767
 C    -4.392251     3.451924     2.113314
 H    -3.894665     4.285790     1.593697
 H    -4.691031     3.807033     3.111757
 H    -5.314007     3.215059     1.555784
 C    -4.164984     1.110222     2.985673
 H    -4.446693     1.446651     3.995321
 H    -3.516112     0.229508     3.103706
 H    -5.085563     0.780239     2.475053
