  82
scf done:    -2151.234542
 C    -1.686413    -2.991865    -0.611828
 H    -2.128189    -3.479240     0.262744
 H    -2.414202    -2.565007    -1.308201
 C    -0.431347    -3.429385    -1.092871
 H     0.087145    -4.243387    -0.578519
 H    -0.198754    -3.354177    -2.158146
 H    -0.541522    -0.911535    -1.501308
Rh    -0.181407    -1.523116    -0.083932
 O    -2.552006     0.612343    -0.742122
 C    -3.077419    -0.544291     1.723307
 C    -1.169950     1.663536     1.389673
 O     2.276401     0.633162     0.359004
 C     3.369874    -1.814808    -0.259908
 C     2.153657    -0.072813    -2.307010
 P     1.882467    -0.721162    -0.589894
 P    -1.697970     0.066614     0.606886
 C     0.403704    -2.211387     1.602038
 O     0.845584    -2.581814     2.596276
 C    -3.781830     1.197299    -0.751793
 C    -4.901801     0.403632    -1.003284
 H    -4.751352    -0.665357    -1.173787
 C    -3.928137     2.575884    -0.569311
 H    -3.047202     3.195110    -0.398157
 C    -6.185457     0.957720    -1.039709
 C    -7.376933     0.090332    -1.326104
 H    -7.327637    -0.857717    -0.769772
 H    -8.316175     0.595304    -1.060346
 H    -7.427997    -0.165124    -2.397382
 C    -5.203156     3.132913    -0.605369
 H    -5.324599     4.208636    -0.456163
 C    -6.323718     2.333990    -0.827904
 H    -7.319147     2.784878    -0.846982
 H    -3.729873    -1.053346     0.991778
 C    -2.596922    -1.600349     2.713822
 H    -3.454861    -1.982910     3.289235
 H    -2.121984    -2.447666     2.204794
 H    -1.872891    -1.193978     3.436238
 C    -3.897893     0.527823     2.435951
 H    -4.288797     1.296234     1.756318
 H    -4.762070     0.056774     2.931465
 H    -3.309445     1.027975     3.220739
 H    -2.092828     2.193610     1.677658
 C    -0.345039     1.356910     2.635610
 H     0.005986     2.293405     3.097103
 H    -0.914899     0.804931     3.397646
 H     0.541224     0.762130     2.364507
 C    -0.383929     2.522967     0.408493
 H    -0.917323     2.661827    -0.542418
 H    -0.194925     3.515580     0.848227
 H     0.585951     2.056340     0.193399
 C     3.498965     1.195329     0.565864
 C     4.021038     2.125547    -0.335241
 H     3.441992     2.384489    -1.223656
 C     4.204528     0.874410     1.728502
 H     3.767085     0.169023     2.437613
 C     5.268025     2.719134    -0.111818
 C     5.807378     3.734731    -1.077247
 H     5.558584     3.475707    -2.116925
 H     5.378071     4.730852    -0.878507
 H     6.899906     3.825618    -0.997870
 C     5.446632     1.459452     1.954044
 H     6.007383     1.203976     2.856479
 C     5.980661     2.366228     1.039792
 H     6.960108     2.814193     1.225673
 H     3.510797    -1.658453     0.824998
 C     3.056191    -3.293186    -0.468597
 H     3.924184    -3.899726    -0.164626
 H     2.187370    -3.613710     0.118322
 H     2.842161    -3.524037    -1.523086
 C     4.664256    -1.427095    -0.970653
 H     4.943513    -0.376358    -0.818556
 H     5.491300    -2.045116    -0.585874
 H     4.599666    -1.613310    -2.053732
 H     3.202133     0.267451    -2.341344
 C     1.955902    -1.193616    -3.322214
 H     2.130418    -0.812720    -4.340897
 H     2.638680    -2.040152    -3.161388
 H     0.925019    -1.575738    -3.272527
 C     1.237442     1.105128    -2.610048
 H     1.397549     1.945889    -1.921378
 H     1.416276     1.464464    -3.636089
 H     0.180352     0.808301    -2.527653
