 110
scf done:    -2917.638894
 C     0.342757    -4.136619     0.966237
 H     0.882457    -4.766008     0.250936
 H     0.838896    -4.040703     1.936274
 C    -1.070898    -4.057582     0.879809
 H    -1.590186    -4.611995     0.093918
 H    -1.674349    -3.892647     1.775685
 H    -0.257952    -1.812943     1.721939
Rh    -0.210115    -2.207820     0.178014
 O     1.169299     0.605390     1.124968
 C     3.201838    -1.205772     0.927801
 C     1.992291     0.063309    -1.400083
 O    -1.203109     0.642471    -1.135682
 C    -3.472072    -0.794637    -0.706116
 C    -2.035827     0.482828     1.468027
 P    -1.755091    -0.535637    -0.056841
 P     1.554195    -0.752719     0.209271
 C    -0.163732    -2.746219    -1.653347
 O    -0.148689    -3.059654    -2.757848
 C     1.773746     0.997608     2.284396
 C     2.590045     2.128772     2.265408
 H     2.750168     2.642115     1.316072
 C     1.542041     0.305049     3.473466
 H     0.898169    -0.577194     3.464928
 C     3.194870     2.587576     3.438534
 C     4.053349     3.819299     3.415850
 H     4.390939     4.051354     2.395553
 H     3.493643     4.694704     3.785206
 H     4.938950     3.705899     4.058902
 C     2.149441     0.757641     4.643242
 H     1.980164     0.220548     5.579750
 C     2.968153     1.884584     4.629068
 H     3.439721     2.224857     5.554844
 H     3.729303    -0.279597     1.202682
 H     2.978973    -1.744607     1.862695
 C     4.046008    -2.035991     0.003399
 C     3.568123    -3.227103    -0.556976
 H     2.564717    -3.572982    -0.303297
 C     5.337000    -1.611291    -0.330346
 H     5.723840    -0.691615     0.119279
 C     4.364255    -3.950464    -1.441639
 H     3.979169    -4.873621    -1.881841
 C     6.151428    -2.329451    -1.211759
 C     7.543232    -1.860362    -1.523719
 H     7.634587    -0.769123    -1.419980
 H     8.276204    -2.316672    -0.837472
 H     7.840716    -2.133394    -2.546643
 C     5.642009    -3.505769    -1.772466
 H     6.255165    -4.079372    -2.473055
 H     2.677955    -0.635470    -1.905980
 H     1.050199     0.084925    -1.962448
 C     2.562061     1.439843    -1.272726
 C     1.703918     2.547310    -1.234107
 H     0.627305     2.393411    -1.330283
 C     3.937263     1.649616    -1.139537
 H     4.609139     0.789241    -1.192561
 C     2.224061     3.825831    -1.060166
 H     1.549148     4.685328    -1.038684
 C     4.474729     2.927293    -0.945784
 C     5.952300     3.110539    -0.749300
 H     6.224025     2.998157     0.314185
 H     6.529281     2.362395    -1.312883
 H     6.283675     4.109505    -1.067637
 C     3.597977     4.017229    -0.909258
 H     3.996297     5.026107    -0.769335
 C    -1.817164     1.057893    -2.283392
 C    -2.564791     2.235769    -2.275911
 H    -2.669173     2.785629    -1.340822
 C    -1.649013     0.333959    -3.465138
 H    -1.056243    -0.582818    -3.461752
 C    -3.165953     2.706238    -3.445823
 C    -3.994697     3.958258    -3.418959
 H    -3.793965     4.548954    -2.513864
 H    -3.798580     4.591352    -4.297326
 H    -5.070919     3.717183    -3.427430
 C    -2.246016     0.802023    -4.634563
 H    -2.117035     0.242545    -5.564243
 C    -2.997458     1.974401    -4.628462
 H    -3.457532     2.329936    -5.554277
 H    -3.999256     0.172033    -0.689025
 H    -3.351154    -1.079719    -1.762069
 C    -4.209453    -1.858431     0.047546
 C    -4.073603    -3.201922    -0.315817
 H    -3.447779    -3.465155    -1.171448
 C    -5.014708    -1.541907     1.147243
 H    -5.143680    -0.493826     1.431507
 C    -4.720191    -4.195143     0.413385
 H    -4.603043    -5.242641     0.125393
 C    -5.672657    -2.525629     1.891847
 C    -6.555328    -2.154361     3.048403
 H    -6.303422    -1.161151     3.447162
 H    -7.615160    -2.128668     2.744356
 H    -6.471008    -2.882847     3.868355
 C    -5.508289    -3.862423     1.512310
 H    -6.007544    -4.650361     2.083011
 H    -2.786600    -0.078254     2.047382
 H    -1.086569     0.424072     2.013587
 C    -2.422599     1.907003     1.230255
 C    -1.418045     2.868775     1.052854
 H    -0.371720     2.564461     1.115773
 C    -3.758736     2.309472     1.135441
 H    -4.552706     1.573558     1.290130
 C    -1.755876     4.191101     0.785477
 H    -0.965406     4.934464     0.654933
 C    -4.115978     3.632628     0.849469
 C    -5.557840     4.020733     0.693179
 H    -5.880586     3.910011    -0.355957
 H    -6.216408     3.387427     1.305108
 H    -5.728054     5.069045     0.978162
 C    -3.093499     4.572169     0.677821
 H    -3.349004     5.613707     0.463570
