 112
scf done:    -2619.752862
 C     0.229486    -1.587478    -3.289978
 H     0.660970    -1.096308    -4.167662
 H     0.759893    -2.494613    -2.989091
 C    -1.160672    -1.469325    -3.030786
 H    -1.788417    -0.885785    -3.712270
 H    -1.691662    -2.283942    -2.529543
 H     0.046058    -1.540103    -0.718965
Rh    -0.076230    -0.233350    -1.633044
 C     3.285883    -1.067259    -1.044213
 C     2.760025     1.748391    -1.087170
 C     1.949106     0.180143     1.278953
 C    -1.487446     2.074282     0.702525
 C    -3.348485     0.715127    -1.107167
 C    -2.219219    -0.521126     1.327625
 P    -1.752804     0.464037    -0.176481
 P     1.952138     0.125974    -0.604263
 C    -0.091341     1.285469    -2.771616
 O    -0.068197     2.183624    -3.489263
 H     4.199500    -0.816155    -0.482111
 H     3.479343    -0.858811    -2.109854
 C     2.940115    -2.534088    -0.842367
 H     2.804352    -2.721192     0.231628
 H     1.971898    -2.755522    -1.320018
 C     4.004397    -3.503820    -1.362460
 H     4.974912    -3.196249    -0.928882
 C     3.703608    -4.915282    -0.871372
 H     3.665300    -4.953407     0.228532
 H     4.466675    -5.633376    -1.210191
 H     2.727868    -5.261236    -1.252037
 C     4.130412    -3.470464    -2.881492
 H     4.907894    -4.166759    -3.232541
 H     4.393436    -2.469810    -3.256902
 H     3.179587    -3.763229    -3.357671
 H     2.972803     1.618697    -2.160364
 H     1.965223     2.503339    -1.024783
 C     3.985735     2.165838    -0.336718
 C     5.231103     1.620374    -0.677992
 H     5.294890     0.945112    -1.534075
 C     3.916008     3.086599     0.732580
 C     2.642941     3.810435     1.071523
 H     1.794138     3.133124     1.247994
 H     2.340717     4.482528     0.251728
 H     2.768913     4.425374     1.972976
 C     6.381616     1.917843     0.045504
 H     7.336805     1.471283    -0.239901
 C     5.081257     3.369471     1.455082
 H     5.024744     4.074179     2.289165
 C     6.303611     2.786309     1.131619
 H     7.194875     3.024198     1.716699
 H     2.209777     1.211488     1.550678
 H     0.903116     0.023327     1.568176
 C     2.861908    -0.758233     2.014302
 C     4.205470    -0.409516     2.196397
 H     4.560342     0.552522     1.819743
 C     2.396584    -1.992202     2.516458
 C     0.963213    -2.412406     2.360523
 H     0.609673    -2.302784     1.323372
 H     0.296545    -1.807016     2.997705
 H     0.824343    -3.461972     2.652904
 C     5.094666    -1.264276     2.841720
 H     6.139289    -0.968813     2.964259
 C     3.302707    -2.836330     3.167694
 H     2.944147    -3.794827     3.553202
 C     4.641982    -2.488065     3.327349
 H     5.327430    -3.171303     3.834466
 H    -0.641736     1.896113     1.389437
 H    -2.365186     2.268447     1.338504
 C    -1.180644     3.253432    -0.204207
 H    -0.254765     3.038032    -0.760383
 H    -1.966387     3.359364    -0.974717
 C    -1.027284     4.598955     0.511063
 H    -0.262738     4.472093     1.300228
 C    -0.525743     5.655715    -0.466452
 H     0.419427     5.351312    -0.942312
 H    -0.358009     6.621820     0.034046
 H    -1.259311     5.820411    -1.272961
 C    -2.318270     5.056380     1.181986
 H    -2.180767     6.025852     1.685099
 H    -2.671976     4.341988     1.940623
 H    -3.121670     5.182744     0.436534
 H    -3.145116     1.596866    -1.738423
 H    -3.380831    -0.135315    -1.798316
 C    -4.641002     0.868158    -0.362144
 C    -4.892045     2.026070     0.386919
 H    -4.149228     2.825938     0.396095
 C    -5.640594    -0.128276    -0.432810
 C    -5.477707    -1.355278    -1.281981
 H    -4.588569    -1.938176    -1.001231
 H    -5.375728    -1.092938    -2.347732
 H    -6.350197    -2.014523    -1.183044
 C    -6.078759     2.197583     1.095178
 H    -6.244236     3.111728     1.670237
 C    -6.827765     0.061617     0.283842
 H    -7.598637    -0.712023     0.231844
 C    -7.051386     1.202445     1.050331
 H    -7.988626     1.317910     1.599800
 H    -1.263233    -0.687676     1.851515
 H    -2.811619     0.150180     1.962641
 C    -2.940646    -1.827586     1.143160
 C    -2.433217    -2.804421     0.277998
 H    -1.513907    -2.587529    -0.270458
 C    -4.122339    -2.095814     1.867454
 C    -4.692189    -1.112569     2.849371
 H    -4.915680    -0.142989     2.378887
 H    -3.995430    -0.924452     3.682590
 H    -5.629117    -1.491802     3.279196
 C    -3.083226    -4.022942     0.098288
 H    -2.667120    -4.764785    -0.587505
 C    -4.764597    -3.323433     1.668581
 H    -5.684678    -3.529114     2.222601
 C    -4.261656    -4.282054     0.792629
 H    -4.788001    -5.230190     0.658712
