  62
scf done:    -1765.181942
 C    -0.842016    -4.024698    -0.604092
 H    -1.159792    -4.577344     0.285657
 H    -1.604419    -3.962595    -1.386002
 C     0.532020    -4.007102    -0.964497
 H     1.257620    -4.548309    -0.349282
 H     0.811990    -3.930337    -2.019059
 H    -0.395604    -1.730556    -1.656560
Rh    -0.009443    -2.092791    -0.142599
 C    -2.608314     0.103476    -1.026115
 C    -3.220528    -1.632355     1.204170
 C    -1.520011     0.593108     1.614573
 C     2.692543    -0.036371     0.828952
 C     2.998850    -1.314803    -1.750911
 C     1.263160     0.906487    -1.496143
 P     1.709247    -0.650360    -0.632220
 P    -1.811814    -0.766258     0.412939
 C     0.485459    -2.504596     1.645067
 O     0.791518    -2.715663     2.733397
 H    -1.792511     0.654565    -1.517632
 H    -2.894418    -0.705323    -1.715861
 C    -3.763121     0.998323    -0.705677
 C    -5.072186     0.503378    -0.669248
 H    -5.260427    -0.543534    -0.921035
 C    -3.554604     2.348394    -0.395773
 H    -2.536415     2.748341    -0.433531
 C    -6.131510     1.337995    -0.320563
 H    -7.149372     0.941002    -0.294891
 C    -4.604888     3.201692    -0.046447
 C    -4.354552     4.652660     0.247911
 H    -3.307812     4.833179     0.531486
 H    -4.568956     5.276462    -0.635886
 H    -4.997771     5.014774     1.063586
 C    -5.901540     2.674705    -0.006635
 H    -6.739050     3.321960     0.267898
 H    -2.852039    -2.106732     2.125560
 H    -4.055311    -0.956586     1.444958
 H    -3.567437    -2.431533     0.533435
 H    -2.433012     1.162618     1.845465
 H    -1.121519     0.147565     2.538308
 H    -0.756840     1.277634     1.215495
 H     1.948375     0.409892     1.507491
 H     3.063672    -0.945328     1.327927
 C     3.804544     0.919225     0.533587
 C     5.092764     0.457861     0.236925
 H     5.301757    -0.614695     0.264988
 C     3.571151     2.300113     0.507101
 H     2.570873     2.672212     0.750086
 C     6.105747     1.357095    -0.087270
 H     7.107455     0.985892    -0.317672
 C     4.575696     3.217770     0.187208
 C     4.303633     4.694399     0.201770
 H     3.232960     4.909819     0.075181
 H     4.618849     5.143233     1.158560
 H     4.854376     5.213322    -0.596622
 C     5.850474     2.725491    -0.117425
 H     6.651545     3.423883    -0.374764
 H     3.442553    -2.209768    -1.291528
 H     2.503353    -1.627929    -2.681248
 H     3.786512    -0.580013    -1.976644
 H     0.568877     1.489134    -0.872763
 H     2.143749     1.524005    -1.728296
 H     0.742826     0.637784    -2.426625
