 112
scf done:    -2619.765108
 C    -0.072238     0.559700    -4.003218
 H    -0.368215    -0.254732    -4.671364
 H    -0.829370     1.340518    -3.888472
 C     1.300346     0.891150    -3.869899
 H     2.049927     0.331312    -4.438082
 H     1.585667     1.926000    -3.656096
 H     0.238273     1.286495    -1.551115
Rh     0.646662    -0.153425    -2.096287
 C    -2.750529     0.374652    -1.427494
 C    -1.911325    -2.372269    -1.233652
 C    -1.244386    -0.491032     0.926334
 C     2.447206    -0.525690     0.996081
 C     4.024173    -0.612125    -1.432154
 C     3.035423     1.889086    -0.430415
 P     2.467096     0.143199    -0.723177
 P    -1.287658    -0.631503    -0.950035
 C     1.088145    -1.918809    -2.652929
 O     1.350186    -3.004117    -2.931735
 H    -3.594209     0.074593    -0.785906
 H    -2.997491     0.070497    -2.457540
 C    -2.536960     1.883927    -1.333015
 H    -1.829201     2.119927    -0.524903
 H    -2.051906     2.248433    -2.254255
 C    -3.831086     2.659161    -1.080338
 H    -4.265746     2.257997    -0.145640
 C    -3.535608     4.135341    -0.850835
 H    -2.852688     4.270233     0.001597
 H    -4.456184     4.702076    -0.640225
 H    -3.061625     4.586983    -1.739058
 C    -4.847086     2.464493    -2.199861
 H    -5.776412     3.019705    -1.997049
 H    -5.117652     1.405149    -2.329346
 H    -4.445747     2.826382    -3.161856
 H    -2.075661    -2.423009    -2.321870
 H    -1.053259    -3.026902    -1.018142
 C    -3.119695    -2.808770    -0.469685
 C    -2.987786    -3.546904     0.713392
 H    -1.994539    -3.857042     1.048287
 C    -4.409649    -2.461334    -0.893278
 H    -4.530339    -1.912298    -1.830955
 C    -4.111500    -3.897226     1.458570
 H    -3.994333    -4.475214     2.378315
 C    -5.547587    -2.791458    -0.152781
 C    -6.909874    -2.348784    -0.601007
 H    -7.194095    -1.405873    -0.104254
 H    -6.940436    -2.170121    -1.685217
 H    -7.680230    -3.093240    -0.352227
 C    -5.381800    -3.515224     1.035525
 H    -6.259498    -3.791337     1.626369
 H    -1.262841    -1.522172     1.310962
 H    -0.254923    -0.076231     1.149927
 C    -2.293461     0.341353     1.600948
 C    -1.980283     1.638355     2.021319
 H    -0.972036     2.027747     1.862181
 C    -3.593770    -0.133110     1.811225
 H    -3.850016    -1.147896     1.501104
 C    -2.948499     2.438667     2.622748
 H    -2.688803     3.450886     2.943683
 C    -4.579245     0.659258     2.407371
 C    -5.976695     0.136650     2.579193
 H    -6.006700    -0.958022     2.484382
 H    -6.395611     0.412719     3.558616
 H    -6.648878     0.555022     1.810960
 C    -4.241019     1.956460     2.812636
 H    -4.997491     2.591014     3.282933
 H     1.744062     0.110072     1.559577
 H     3.441431    -0.378369     1.448432
 C     1.999776    -1.977457     1.055228
 H     1.085187    -2.081762     0.447409
 H     2.747460    -2.626775     0.564327
 C     1.734025    -2.509215     2.464288
 H     0.997367    -1.831497     2.936210
 C     1.113795    -3.899466     2.396792
 H     0.183258    -3.893737     1.807598
 H     0.875265    -4.286092     3.399578
 H     1.802464    -4.614852     1.917390
 C     2.989915    -2.513303     3.329311
 H     2.774159    -2.885956     4.342585
 H     3.425102    -1.507762     3.431137
 H     3.762443    -3.168371     2.892004
 H     3.780893    -1.673144    -1.596708
 H     4.122611    -0.157499    -2.430050
 C     5.274177    -0.457271    -0.624954
 C     6.120794     0.645103    -0.805571
 H     5.894395     1.377520    -1.584775
 C     5.608323    -1.393277     0.360571
 H     4.970934    -2.272305     0.493487
 C     7.250552     0.804438    -0.008549
 H     7.906985     1.664297    -0.163262
 C     6.734590    -1.246044     1.177116
 C     7.032702    -2.254997     2.248375
 H     6.381197    -2.102048     3.124961
 H     6.858611    -3.281787     1.893137
 H     8.073862    -2.184029     2.593228
 C     7.553615    -0.129515     0.980532
 H     8.443261     0.003473     1.601998
 H     3.955453     1.847081     0.173167
 H     3.306252     2.272001    -1.426325
 C     2.021154     2.783908     0.212650
 C     1.142203     3.547232    -0.564605
 H     1.195399     3.486958    -1.653367
 C     1.934233     2.881964     1.607236
 H     2.630066     2.305473     2.224584
 C     0.215150     4.388665     0.043456
 H    -0.458547     4.987092    -0.573643
 C     1.000651     3.712880     2.236065
 C     0.894493     3.759062     3.732838
 H     1.834835     3.456775     4.215651
 H     0.634212     4.766811     4.088589
 H     0.106168     3.073856     4.089181
 C     0.143220     4.472953     1.431693
 H    -0.586839     5.139526     1.899585
