  98
scf done:    -2760.502477
 C     0.540757    -2.843807     2.355927
 H     1.318218    -3.579909     2.130140
 H     0.735713    -2.253903     3.256311
 C    -0.792835    -3.104173     1.957996
 H    -1.026692    -4.026645     1.417824
 H    -1.622892    -2.718039     2.557147
 H    -0.459044    -0.564598     1.786660
Rh     0.040942    -1.575551     0.671525
 O     1.251319     1.613036     0.400385
 C     2.872641     0.122923     1.972613
 C     2.773254    -0.056916    -0.943990
 O    -1.699903    -0.715816    -2.124335
 C    -3.193335    -2.156323    -0.506303
 C    -2.725436     0.654113    -0.042280
 P    -1.835366    -0.908930    -0.453652
 P     1.695059    -0.012110     0.540399
 C     0.711406    -2.795960    -0.639384
 O     1.136395    -3.544596    -1.397418
 C     0.273446     2.264764     1.076848
 C    -0.349397     3.323454     0.404445
 H    -0.005827     3.565509    -0.602443
 C    -0.116826     1.943797     2.377969
 H     0.377270     1.141335     2.924109
 C    -1.393499     4.037807     0.992280
 C    -2.085536     5.141842     0.247033
 H    -2.060239     6.084517     0.815661
 H    -1.620800     5.323730    -0.732104
 H    -3.146244     4.895535     0.078299
 C    -1.161999     2.655885     2.966611
 H    -1.487132     2.388004     3.974254
 C    -1.804151     3.682281     2.285028
 H    -2.634864     4.212938     2.756202
 H     2.293498    -0.151307     2.869291
 H     3.154281     1.182106     2.061929
 C     4.104777    -0.728886     1.850515
 C     5.369544    -0.155447     2.021108
 H     5.448124     0.914088     2.232454
 C     4.025171    -2.094134     1.547004
 H     3.043697    -2.553740     1.412693
 C     6.524823    -0.921231     1.892113
 H     7.502121    -0.450493     2.022233
 C     5.180818    -2.859391     1.405066
 H     5.098354    -3.921412     1.160874
 C     6.435534    -2.276330     1.578314
 H     7.341445    -2.877399     1.469163
 H     2.095720     0.253373    -1.754802
 H     2.980668    -1.122796    -1.115104
 C     4.051079     0.728808    -0.966186
 C     5.252445     0.078869    -1.271291
 H     5.243312    -0.997749    -1.460615
 C     4.086473     2.104763    -0.701034
 H     3.158328     2.623162    -0.455270
 C     6.457020     0.775657    -1.305631
 H     7.382793     0.243819    -1.537897
 C     5.292782     2.801897    -0.726976
 H     5.301361     3.873402    -0.511341
 C     6.483195     2.141375    -1.029143
 H     7.427786     2.690247    -1.049851
 C    -0.615792    -0.189234    -2.758011
 C    -0.321493     1.172167    -2.668609
 H    -0.949705     1.809457    -2.043886
 C     0.163484    -1.025519    -3.559163
 H    -0.081133    -2.087135    -3.614546
 C     0.752725     1.720589    -3.377831
 C     1.095369     3.174887    -3.239852
 H     0.197036     3.789600    -3.082856
 H     1.763426     3.332989    -2.377242
 H     1.618136     3.552009    -4.130002
 C     1.228447    -0.483837    -4.273346
 H     1.840564    -1.133405    -4.903426
 C     1.523042     0.875801    -4.186164
 H     2.366673     1.287927    -4.745085
 H    -3.340307    -2.463205     0.539654
 H    -2.748078    -3.017781    -1.029648
 C    -4.486327    -1.720293    -1.127778
 C    -4.604605    -1.550136    -2.514341
 H    -3.740674    -1.748469    -3.151089
 C    -5.600918    -1.453283    -0.323640
 H    -5.523390    -1.576752     0.759561
 C    -5.802660    -1.116506    -3.076168
 H    -5.876767    -0.989017    -4.159031
 C    -6.800127    -1.020340    -0.885467
 H    -7.656169    -0.815226    -0.238086
 C    -6.904712    -0.847543    -2.264126
 H    -7.844357    -0.508318    -2.706908
 H    -3.319814     0.894748    -0.936899
 H    -1.947547     1.427688     0.058754
 C    -3.610083     0.667038     1.174476
 C    -3.287869    -0.011623     2.354897
 H    -2.356954    -0.580035     2.406808
 C    -4.797138     1.408870     1.139094
 H    -5.071665     1.930734     0.218558
 C    -4.132448     0.042835     3.462705
 H    -3.863287    -0.500301     4.372203
 C    -5.637141     1.474462     2.247210
 H    -6.559254     2.058621     2.194131
 C    -5.309795     0.787053     3.415721
 H    -5.970644     0.830331     4.284754
