  66
scf done:    -2065.925514
 C     3.377212    -2.750560    -0.712169
 H     3.655308    -3.357943     0.153638
 H     2.889966    -3.311485    -1.513284
 C     4.103790    -1.572904    -1.013032
 H     4.948625    -1.283725    -0.380102
 H     4.182163    -1.232887    -2.049038
 H     1.685360    -1.127238    -1.667967
Rh     2.173049    -1.051534    -0.151774
 C    -1.141949    -1.387227    -1.108593
 O     0.021082    -3.529329     0.252475
 O    -0.783486    -1.439698     1.495590
 C     0.501693     1.793466     1.052687
 O     2.698919     2.343926    -0.298832
 O     0.578192     1.538720    -1.537743
 P     1.572891     1.142112    -0.285982
 P     0.092664    -1.894918     0.161607
 C     2.892583    -0.986773     1.618171
 O     3.376733    -0.949938     2.657335
 H    -0.929814    -0.313396    -1.245308
 H    -0.792131    -1.881453    -2.028649
 C    -2.605393    -1.619706    -0.880217
 C    -3.306792    -2.575918    -1.624555
 H    -2.778135    -3.170137    -2.375231
 C    -3.310250    -0.855475     0.055065
 H    -2.768935    -0.110396     0.642291
 C    -4.670613    -2.765221    -1.421824
 H    -5.209554    -3.511237    -2.011115
 C    -4.680810    -1.029984     0.271210
 C    -5.395240    -0.194355     1.294294
 H    -5.086919    -0.470483     2.315888
 H    -5.165500     0.875129     1.168007
 H    -6.485245    -0.318699     1.229423
 C    -5.354299    -1.999416    -0.479176
 H    -6.426934    -2.149154    -0.329048
 C    -1.169600    -4.252223     0.505228
 H    -1.892576    -3.658821     1.085931
 H    -1.644923    -4.561165    -0.437892
 H    -0.897182    -5.151296     1.076818
 C    -0.206358    -1.561279     2.775721
 H     0.297328    -2.533283     2.906470
 H     0.524148    -0.757824     2.964359
 H    -1.018833    -1.481100     3.511240
 H    -0.218790     0.988146     1.260783
 H     1.167011     1.869182     1.927873
 C    -0.203321     3.082573     0.763179
 C     0.448474     4.313423     0.878061
 H     1.495080     4.341656     1.188176
 C    -1.534628     3.061936     0.335106
 H    -2.042035     2.098699     0.228272
 C    -0.231092     5.490998     0.574745
 H     0.282765     6.451474     0.664322
 C    -2.232009     4.232583     0.030436
 C    -3.670625     4.181410    -0.397868
 H    -3.867152     4.869690    -1.233804
 H    -3.959699     3.168948    -0.715227
 H    -4.340816     4.475440     0.427201
 C    -1.558670     5.453840     0.155674
 H    -2.081492     6.385248    -0.079839
 C     3.998455     2.134849    -0.805982
 H     4.254710     1.062491    -0.797178
 H     4.077506     2.517382    -1.837042
 H     4.708687     2.684497    -0.171510
 C     0.993467     1.382173    -2.871974
 H     1.737205     2.149362    -3.145210
 H     1.426286     0.380361    -3.043030
 H     0.108339     1.508410    -3.510485
