  98
scf done:    -2760.436753
 C    -0.870133     0.990673    -3.268936
 H    -1.350037     0.247983    -3.913230
 H    -1.514362     1.832838    -3.002474
 C     0.535595     1.148034    -3.317636
 H     1.113930     0.525645    -4.008326
 H     0.990786     2.118257    -3.100427
 H    -0.148689     1.627644    -0.969805
Rh    -0.025647     0.138709    -1.484044
 C    -1.891279     1.164599     1.283689
 C    -3.518331     0.217028    -0.918879
 C    -2.257482    -1.600909     0.781165
 C     1.833102    -0.746298     1.452848
 C     3.434377    -0.508000    -0.867632
 C     2.405441     1.840682     0.383952
 P     1.879083     0.161010    -0.151640
 P    -1.886482    -0.031308    -0.109492
 C     0.165663    -1.636174    -2.172322
 O     0.315012    -2.685036    -2.618029
 C    -1.581593     0.760720     2.583946
 H    -1.439849    -0.301915     2.790125
 C    -2.028847     2.546954     1.023264
 O    -2.273409     2.885901    -0.253145
 C    -2.219324     4.229544    -0.640605
 H    -3.023782     4.824525    -0.173817
 H    -2.354088     4.243140    -1.729162
 H    -1.242630     4.679904    -0.392933
 C    -1.424113     1.687967     3.614869
 H    -1.170268     1.344670     4.619705
 C    -1.894032     3.477362     2.058763
 H    -2.013119     4.542794     1.860468
 C    -1.590000     3.042588     3.349417
 H    -1.477565     3.779149     4.148709
 C    -3.733924    -0.432608    -2.138607
 H    -2.918649    -1.005964    -2.587049
 C    -4.567257     0.951353    -0.360055
 H    -4.428542     1.463074     0.595366
 C    -4.966298    -0.353858    -2.777787
 H    -5.112978    -0.875836    -3.727788
 C    -5.796863     1.035385    -1.009503
 H    -6.604555     1.616823    -0.555305
 C    -6.019958     0.387778    -2.229033
 C    -7.334999     0.502746    -2.943128
 H    -8.139157     0.814723    -2.261415
 H    -7.280578     1.249474    -3.753061
 H    -7.627525    -0.452632    -3.404054
 C    -3.445439    -1.763329     1.510668
 H    -4.172564    -0.949129     1.555167
 C    -1.357561    -2.662081     0.729596
 H    -0.433071    -2.546069     0.163386
 C    -3.710293    -2.952219     2.175220
 H    -4.641615    -3.057199     2.739430
 C    -1.631967    -3.857866     1.395439
 H    -0.913479    -4.680471     1.343655
 C    -2.806279    -4.025222     2.129745
 C    -3.108783    -5.309200     2.844574
 H    -4.012414    -5.788380     2.434542
 H    -2.279659    -6.025233     2.757059
 H    -3.295511    -5.134609     3.916020
 C     1.751666    -0.123274     2.698068
 H     1.764554     0.966329     2.752825
 C     1.828778    -2.157261     1.408432
 O     1.883469    -2.699652     0.175689
 C     2.120240    -4.069807     0.013344
 H     3.066583    -4.371460     0.493824
 H     2.185338    -4.243217    -1.067539
 H     1.296846    -4.681234     0.420929
 C     1.662421    -0.867845     3.875760
 H     1.597297    -0.355560     4.838004
 C     1.763087    -2.907085     2.583273
 H     1.767978    -3.996644     2.543715
 C     1.671661    -2.256636     3.814335
 H     1.609846    -2.850185     4.729586
 C     3.560003    -0.614827    -2.252054
 H     2.719736    -0.313400    -2.880402
 C     4.512047    -0.901264    -0.063168
 H     4.433623    -0.823828     1.024544
 C     4.734522    -1.103814    -2.822645
 H     4.811835    -1.178544    -3.910995
 C     5.678775    -1.392795    -0.636747
 H     6.508744    -1.695685     0.008615
 C     5.811771    -1.505676    -2.028398
 C     7.065590    -2.063256    -2.636182
 H     7.964555    -1.651457    -2.152829
 H     7.108479    -3.158830    -2.517710
 H     7.124560    -1.844770    -3.711736
 C     3.699206     2.333318     0.198032
 H     4.461111     1.709514    -0.272439
 C     1.456244     2.682497     0.980256
 H     0.433485     2.329399     1.116691
 C     4.030629     3.627677     0.601450
 H     5.048296     3.992821     0.436183
 C     1.797930     3.960992     1.400070
 H     1.035546     4.583251     1.878207
 C     3.093474     4.463398     1.212562
 C     3.445395     5.858834     1.637617
 H     2.953974     6.605394     0.992042
 H     3.116155     6.058635     2.669119
 H     4.528789     6.036190     1.585186
