 112
scf done:    -2319.954861
 C    -1.245253    -3.237384    -1.133423
 H    -1.951152    -3.745302    -0.467701
 H    -1.651775    -3.013493    -2.124666
 C     0.146374    -3.478445    -0.993658
 H     0.497706    -4.170604    -0.222037
 H     0.790552    -3.440995    -1.876603
 H    -0.098947    -1.058518    -1.748735
Rh    -0.330331    -1.513165    -0.233314
 C    -2.097798     1.024559    -1.928364
 C    -3.724630    -0.923307    -0.566763
 C    -2.315041     1.321059     0.923403
 C     1.355054     1.289447     0.958782
 C     2.883978    -1.174839     1.318968
 C     2.555383     0.059659    -1.438792
 P     1.671942    -0.353298     0.152854
 P    -2.111631     0.002748    -0.386914
 C    -0.542430    -2.111654     1.553803
 O    -0.627932    -2.509878     2.631122
 H    -3.033834     1.597629    -2.022803
 H    -2.084777     0.284463    -2.744234
 C    -0.901321     1.955211    -2.027908
 H    -0.989282     2.743664    -1.260672
 H     0.008281     1.383520    -1.783173
 C    -0.699312     2.628946    -3.387273
 H    -1.647934     3.126187    -3.665368
 C     0.379275     3.701345    -3.277136
 H     0.116297     4.463330    -2.526560
 H     0.541126     4.214677    -4.237534
 H     1.341114     3.255439    -2.972662
 C    -0.353130     1.622457    -4.479120
 H    -0.213126     2.121662    -5.450276
 H    -1.136868     0.861552    -4.608634
 H     0.583094     1.092060    -4.236770
 H    -3.412642    -1.708577    -1.279392
 C    -4.936033    -0.218727    -1.182868
 H    -4.667974     0.263255    -2.134882
 H    -5.294395     0.581214    -0.515252
 C    -6.070480    -1.214062    -1.422332
 H    -6.943855    -0.692999    -1.847766
 H    -5.747286    -1.949373    -2.181342
 C    -6.458719    -1.951215    -0.145990
 H    -7.252456    -2.687222    -0.353480
 H    -6.886247    -1.228489     0.573116
 C    -5.250859    -2.630321     0.488741
 H    -4.888901    -3.434064    -0.177434
 H    -5.534028    -3.116173     1.436618
 C    -4.118057    -1.637743     0.727060
 H    -4.449392    -0.890777     1.469911
 H    -3.242257    -2.147216     1.157259
 H    -1.428884     1.950609     0.718319
 C    -2.148322     0.807936     2.354170
 H    -1.249437     0.178778     2.426080
 H    -2.996211     0.155707     2.621088
 C    -2.066988     1.962670     3.347922
 H    -1.978168     1.571012     4.374178
 H    -1.142745     2.537376     3.154032
 C    -3.266547     2.895681     3.233304
 H    -3.161701     3.746227     3.926321
 H    -4.178108     2.353103     3.543572
 C    -3.446203     3.390784     1.803202
 H    -2.585377     4.026533     1.525506
 H    -4.341754     4.028661     1.724591
 C    -3.542815     2.226371     0.820245
 H    -4.448083     1.640029     1.051973
 H    -3.669417     2.607172    -0.205251
 H     0.521514     1.073861     1.644605
 H     0.912954     1.892645     0.150965
 C     2.412234     2.085465     1.710532
 H     2.826739     1.469759     2.525257
 H     3.261337     2.338440     1.054421
 C     1.871364     3.381632     2.326235
 H     1.051142     3.102249     3.014433
 C     2.956897     4.067458     3.147594
 H     3.358990     3.396830     3.922989
 H     2.574457     4.970459     3.648126
 H     3.798724     4.374839     2.504737
 C     1.296734     4.333056     1.281587
 H     0.963513     5.274139     1.745702
 H     0.429778     3.903404     0.756965
 H     2.054632     4.587262     0.521010
 H     2.437540    -0.929508     2.304185
 C     4.327099    -0.660215     1.314242
 H     4.365577     0.433522     1.394539
 H     4.794951    -0.917963     0.349115
 C     5.143811    -1.292897     2.438740
 H     6.178779    -0.914292     2.409173
 H     4.724516    -0.975134     3.410983
 C     5.127637    -2.813976     2.354667
 H     5.683553    -3.253735     3.198720
 H     5.656101    -3.128996     1.436395
 C     3.700014    -3.345363     2.316369
 H     3.207470    -3.139284     3.284140
 H     3.698863    -4.441015     2.197162
 C     2.882662    -2.701745     1.201617
 H     3.298441    -2.993106     0.221453
 H     1.851694    -3.076690     1.211750
 H     1.697850     0.368916    -2.062154
 C     3.120690    -1.200394    -2.096454
 H     2.352257    -1.987688    -2.088142
 H     3.972194    -1.579179    -1.505135
 C     3.592725    -0.917094    -3.518012
 H     4.024279    -1.828748    -3.962202
 H     2.719013    -0.651425    -4.140609
 C     4.601852     0.224585    -3.550856
 H     4.911392     0.439347    -4.586619
 H     5.515928    -0.084193    -3.011187
 C     4.033894     1.478304    -2.896595
 H     3.180505     1.841656    -3.497461
 H     4.780489     2.289295    -2.899181
 C     3.559056     1.212891    -1.468491
 H     4.430271     0.986016    -0.833789
 H     3.100264     2.127190    -1.061498
