 110
scf done:    -2617.784704
 C    -0.851408     0.856542    -3.350233
 H    -1.350127     0.102454    -3.968045
 H    -1.459868     1.747192    -3.164272
 C     0.566425     0.976310    -3.400862
 H     1.139182     0.310533    -4.055116
 H     1.030830     1.956727    -3.257709
 H    -0.137563     1.592133    -1.084443
Rh    -0.020838     0.084645    -1.533973
 C    -1.680362     1.300860     1.267080
 C    -3.421013     0.454584    -0.916984
 C    -2.109300    -1.532542     0.946728
 C     1.623089    -1.085005     1.346419
 C     3.391293    -0.570466    -0.905694
 C     2.178954     1.669655     0.730140
 P     1.817951     0.040399    -0.104884
 P    -1.826075     0.018307    -0.055665
 C     0.157866    -1.670676    -2.250649
 O     0.306601    -2.670120    -2.803759
 C    -1.402970     0.977286     2.598031
 H    -1.373896    -0.067674     2.903095
 C    -1.701421     2.675208     0.926131
 O    -2.006849     2.975347    -0.350291
 C    -1.823613     4.279097    -0.825499
 H    -2.523612     4.991241    -0.354609
 H    -2.021857     4.246636    -1.904290
 H    -0.789390     4.626992    -0.661934
 C    -1.124143     1.950568     3.559282
 H    -0.904881     1.651411     4.586508
 C    -1.420194     3.654878     1.882527
 H    -1.433775     4.709340     1.606831
 C    -1.127070     3.291085     3.196447
 H    -0.908637     4.067389     3.933511
 H    -3.062735     1.271443    -1.563254
 C    -4.579201     1.016794    -0.094088
 H    -4.228484     1.822750     0.567425
 H    -5.003065     0.237577     0.558680
 C    -5.673151     1.536038    -1.024398
 H    -6.519269     1.927258    -0.435683
 H    -5.274091     2.389459    -1.602365
 C    -6.151493     0.454436    -1.987935
 H    -6.912511     0.859639    -2.674890
 H    -6.650740    -0.345182    -1.410279
 C    -4.992621    -0.150427    -2.773908
 H    -4.563006     0.616355    -3.443341
 H    -5.352203    -0.964839    -3.423996
 C    -3.894812    -0.662441    -1.846126
 H    -4.292136    -1.503896    -1.251886
 H    -3.043556    -1.050945    -2.427727
 H    -1.252203    -1.520793     1.645806
 C    -1.944699    -2.812278     0.123536
 H    -0.983389    -2.783895    -0.405700
 H    -2.725248    -2.869311    -0.652518
 C    -2.019382    -4.052806     1.009607
 H    -1.939004    -4.960122     0.387727
 H    -1.148080    -4.054962     1.686575
 C    -3.291396    -4.090823     1.847443
 H    -3.291706    -4.974292     2.506702
 H    -4.167175    -4.198754     1.181745
 C    -3.441761    -2.812454     2.662692
 H    -2.619987    -2.748701     3.399494
 H    -4.380320    -2.828572     3.240643
 C    -3.403742    -1.582510     1.760833
 H    -4.259085    -1.630996     1.066659
 H    -3.536431    -0.663956     2.352368
 C     1.392737    -0.619184     2.643983
 H     1.389244     0.452271     2.838604
 C     1.589930    -2.485304     1.145450
 O     1.788791    -2.911736    -0.116900
 C     1.753062    -4.282626    -0.408257
 H     2.565724    -4.826066     0.103962
 H     1.879974    -4.369012    -1.493734
 H     0.784400    -4.730726    -0.129673
 C     1.143261    -1.483695     3.711309
 H     0.964768    -1.076684     4.708936
 C     1.366841    -3.358368     2.213578
 H     1.364532    -4.435843     2.050460
 C     1.137873    -2.855530     3.494215
 H     0.958234    -3.548488     4.319484
 H     3.004013    -1.424562    -1.485061
 C     4.504308    -1.106964    -0.006454
 H     4.105057    -1.831221     0.718880
 H     4.944854    -0.286892     0.582800
 C     5.596548    -1.756481    -0.853318
 H     6.408268    -2.128119    -0.206405
 H     5.173973    -2.641660    -1.362933
 C     6.148223    -0.790728    -1.897121
 H     6.904550    -1.291288    -2.523684
 H     6.671150     0.035121    -1.380685
 C     5.036763    -0.208907    -2.764235
 H     4.587739    -1.013528    -3.374004
 H     5.448160     0.526601    -3.474823
 C     3.944230     0.434705    -1.915658
 H     4.371375     1.302175    -1.383065
 H     3.128968     0.814453    -2.549769
 H     1.288793     1.779096     1.379732
 C     2.145063     2.878139    -0.210272
 H     1.248214     2.821121    -0.844662
 H     3.012856     2.852521    -0.889458
 C     2.165613     4.177065     0.589427
 H     2.154948     5.041182    -0.095851
 H     1.239868     4.237406     1.188844
 C     3.370180     4.254197     1.520978
 H     3.333244     5.174884     2.126223
 H     4.292805     4.317340     0.915606
 C     3.452460     3.026303     2.420732
 H     2.592439     3.022971     3.115605
 H     4.359381     3.066327     3.046135
 C     3.434340     1.737224     1.603228
 H     4.322710     1.717584     0.949406
 H     3.517182     0.861290     2.263432
