  92
scf done:    -4444.145746
 C     0.826180    -4.049321     1.044034
 H     0.128975    -4.693022     1.588211
 H     1.022949    -4.364253     0.015836
 C     1.809291    -3.317612     1.748763
 H     1.870338    -3.396176     2.837831
 H     2.752303    -3.058970     1.260409
 H     1.151234    -1.828468    -0.171894
Rh     0.241463    -1.957389     1.117203
 C    -2.934440    -2.786660    -0.386042
 O    -2.120631    -0.201621    -0.282251
 O    -1.101948    -1.900686    -1.985451
 C     0.140790     1.308934     2.514714
 O     2.512558     0.520779     1.685660
 O     0.741862     0.936976    -0.144251
 P     0.923649     0.169988     1.323090
 P    -1.444877    -1.734922    -0.357654
 C    -0.737721    -2.097898     2.765579
 O    -1.285894    -2.154138     3.770439
 H    -3.528595    -2.527256    -1.277265
 H    -2.559699    -3.812831    -0.535132
 C    -3.765927    -2.682341     0.883954
 H    -3.147655    -2.951378     1.756399
 H    -4.073206    -1.633978     1.039706
 C    -5.005157    -3.565400     0.850907
 H    -4.701605    -4.616755     0.696550
 H    -5.620134    -3.297838    -0.027371
 C    -5.851056    -3.460671     2.112057
 H    -5.229515    -3.721710     2.986749
 H    -6.146051    -2.406682     2.260142
 C    -7.090378    -4.340006     2.081372
 H    -7.680884    -4.241649     3.004677
 H    -6.823389    -5.403188     1.969354
 H    -7.747030    -4.075825     1.236843
 C    -3.232246     0.276407    -0.909442
 C    -4.082745     1.088230    -0.153127
 H    -3.845123     1.261627     0.898464
 C    -3.513592     0.039899    -2.258395
 H    -2.845842    -0.586673    -2.849847
 C    -5.208861     1.660425    -0.733707
 H    -5.875908     2.295045    -0.148117
 C    -4.646270     0.606575    -2.838105
 H    -4.874497     0.426720    -3.889888
 C    -5.489269     1.414402    -2.077794
Cl    -6.893120     2.120603    -2.805676
 C     0.091864    -1.521204    -2.537156
 C     1.063305    -2.489088    -2.788497
 H     0.858480    -3.527320    -2.523145
 C     0.326658    -0.186218    -2.860178
 H    -0.435095     0.564205    -2.645644
 C     2.279371    -2.123422    -3.355678
 H     3.050439    -2.870431    -3.549677
 C     1.542295     0.186951    -3.425226
 H     1.744588     1.231824    -3.665709
 C     2.514314    -0.783765    -3.662874
Cl     4.047955    -0.317152    -4.326886
 H    -0.860735     1.494903     2.087068
 H    -0.031809     0.690412     3.412006
 C     0.842270     2.607365     2.891201
 H     1.826663     2.371214     3.325311
 H     1.045924     3.207513     1.992258
 C     0.024532     3.441273     3.867224
 H    -0.171870     2.856178     4.784439
 H    -0.967567     3.649789     3.426094
 C     0.695572     4.757237     4.235330
 H     1.689767     4.546643     4.667458
 H     0.887581     5.331426     3.311678
 C    -0.117408     5.600050     5.204200
 H     0.392833     6.544014     5.448210
 H    -0.294595     5.063552     6.150328
 H    -1.102884     5.854937     4.781994
 C     3.559231    -0.191130     1.167928
 C     3.666209    -0.459947    -0.198512
 H     2.890710    -0.124101    -0.888022
 C     4.547147    -0.629905     2.049256
 H     4.439053    -0.413084     3.113291
 C     4.762475    -1.170319    -0.680258
 H     4.859004    -1.369523    -1.748456
 C     5.643249    -1.339184     1.570305
 H     6.420227    -1.690456     2.250985
 C     5.744161    -1.609496     0.205225
Cl     7.107649    -2.495896    -0.395056
 C     0.778998     2.279372    -0.375524
 C     1.997701     2.945731    -0.516875
 H     2.931059     2.390358    -0.413284
 C    -0.425675     2.970016    -0.517595
 H    -1.364172     2.420230    -0.426762
 C     2.009975     4.314847    -0.765190
 H     2.953998     4.852093    -0.868457
 C    -0.415004     4.339224    -0.765692
 H    -1.349023     4.892963    -0.872839
 C     0.804068     5.007432    -0.879265
Cl     0.821182     6.714050    -1.175389
