 100
scf done:    -2462.621057
 C    -0.109611     0.967720    -3.747965
 H    -0.390130     0.234570    -4.510275
 H    -0.868586     1.733572    -3.565072
 C     1.259589     1.276871    -3.545304
 H     2.021866     0.781867    -4.155322
 H     1.540496     2.280322    -3.210047
 H     0.144013     1.412626    -1.221134
Rh     0.562100     0.041757    -1.916257
 C    -2.848848     0.508158    -1.267381
 C    -2.021899    -2.247043    -1.375480
 C    -1.397661    -0.636914     1.003123
 C     2.302780    -0.684421     1.152084
 C     3.916741    -0.517567    -1.248055
 C     2.929001     1.868851     0.006206
 P     2.355550     0.169711    -0.482268
 P    -1.400088    -0.554905    -0.877221
 C     1.008944    -1.651609    -2.660032
 O     1.271201    -2.699739    -3.055709
 H    -3.708169     0.146432    -0.680430
 H    -3.075654     0.322175    -2.329726
 C    -2.626750     1.995419    -1.003558
 H    -1.966977     2.132326    -0.134395
 H    -2.082960     2.444579    -1.851661
 C    -3.923908     2.764302    -0.747576
 H    -4.425818     2.271390     0.105976
 C    -3.622159     4.199021    -0.334962
 H    -3.000917     4.222984     0.573326
 H    -4.546173     4.760936    -0.126892
 H    -3.078732     4.734449    -1.132235
 C    -4.865470     2.718484    -1.945341
 H    -5.798346     3.267132    -1.741563
 H    -5.141951     1.686691    -2.211477
 H    -4.395175     3.177437    -2.831711
 H    -1.171116    -2.927254    -1.218004
 H    -2.161029    -2.170838    -2.465661
 C    -3.248959    -2.763220    -0.696124
 C    -4.531284    -2.381912    -1.116469
 H    -4.639186    -1.736809    -1.991535
 C    -3.145373    -3.621670     0.407363
 H    -2.157185    -3.957501     0.733323
 C    -5.666459    -2.813941    -0.435348
 H    -6.655201    -2.499566    -0.778092
 C    -4.279057    -4.058172     1.090073
 H    -4.171230    -4.723800     1.949674
 C    -5.545303    -3.647571     0.676732
 H    -6.435873    -3.985066     1.211701
 H    -0.407765    -0.267953     1.294911
 H    -1.438335    -1.705348     1.263851
 C    -2.450331     0.126966     1.749351
 C    -3.759719    -0.350776     1.890914
 H    -4.031435    -1.320641     1.470753
 C    -2.130184     1.367347     2.315925
 H    -1.112200     1.753913     2.221642
 C    -4.721823     0.399294     2.564661
 H    -5.736978     0.006559     2.661869
 C    -3.091351     2.119199     2.986883
 H    -2.815787     3.085992     3.415601
 C    -4.394971     1.640077     3.110616
 H    -5.151615     2.228281     3.635288
 H     1.593262    -0.109587     1.770754
 H     3.288975    -0.596432     1.636480
 C     1.845619    -2.130210     1.038868
 H     0.951150    -2.158983     0.393639
 H     2.606024    -2.729209     0.505073
 C     1.528728    -2.809921     2.371602
 H     0.773345    -2.185657     2.885733
 C     0.914416    -4.183518     2.131025
 H     0.008974    -4.113196     1.507754
 H     0.635664    -4.673798     3.076438
 H     1.623479    -4.845778     1.607133
 C     2.751180    -2.908707     3.277426
 H     2.500012    -3.393375     4.233519
 H     3.176080    -1.920444     3.508325
 H     3.543723    -3.508984     2.799048
 H     4.021140     0.028213    -2.198484
 H     3.672082    -1.557753    -1.513038
 C     5.164898    -0.442729    -0.427201
 C     5.500465    -1.465152     0.471409
 H     4.864344    -2.351593     0.536439
 C     6.016154     0.668138    -0.508754
 H     5.785209     1.467646    -1.217981
 C     6.635030    -1.372899     1.274339
 H     6.875451    -2.183770     1.966358
 C     7.152406     0.763284     0.291662
 H     7.802009     1.637975     0.208011
 C     7.463869    -0.255057     1.191411
 H     8.354748    -0.181777     1.819383
 H     3.170763     2.372284    -0.942584
 H     3.865031     1.758449     0.575405
 C     1.935484     2.673800     0.786237
 C     1.919021     2.629527     2.187017
 H     2.645429     2.003004     2.711916
 C     1.008963     3.501349     0.138148
 H     1.008414     3.550132    -0.952626
 C     1.009700     3.391939     2.918753
 H     1.019156     3.346854     4.010445
 C     0.101701     4.266935     0.866269
 H    -0.606833     4.909575     0.339410
 C     0.098739     4.216545     2.259756
 H    -0.609359     4.822195     2.830500
