  86
scf done:    -2452.062316
 C     1.352562    -0.404086    -2.943039
 H     1.335638     0.488407    -3.574903
 H     2.352617    -0.736443    -2.655173
 C     0.298008    -1.342954    -3.006680
 H    -0.532109    -1.175828    -3.700199
 H     0.495276    -2.393962    -2.781366
 H     1.050284    -1.302085    -0.588719
Rh     0.124982    -0.164662    -1.181255
 O     2.557132     0.553646     1.050864
 O     2.321686     2.228587    -0.879183
 O     0.795930     2.271596     1.119560
 O    -2.216842    -0.062647     1.278653
 O    -2.497726    -2.069061    -0.124975
 O    -0.563490    -1.872855     1.521897
 P    -1.283023    -1.057185     0.322912
 P     1.419670     1.223337     0.030351
 C    -1.026079     1.123574    -2.055069
 O    -1.670242     1.845216    -2.663330
 C     3.181436    -0.632336     0.773607
 C     3.983969    -0.765919    -0.356327
 H     4.095219     0.088285    -1.027801
 C     2.997112    -1.701482     1.648761
 H     2.343490    -1.575417     2.512326
 C     4.615267    -1.982158    -0.640182
 C     5.450997    -2.122639    -1.879531
 H     4.835500    -1.999783    -2.785506
 H     6.240161    -1.355706    -1.919610
 H     5.932679    -3.108809    -1.931764
 C     3.632346    -2.908154     1.377214
 H     3.493243    -3.755191     2.053532
 C     4.431902    -3.050847     0.242780
 H     4.918468    -4.007661     0.036979
 C     3.117956     3.285477    -0.322116
 H     3.200345     3.132540     0.767717
 C     2.421168     4.602943    -0.593893
 H     1.415871     4.595913    -0.150818
 H     2.322349     4.764029    -1.678257
 H     2.991107     5.441979    -0.166497
 C     4.499894     3.195311    -0.934124
 H     4.978645     2.239379    -0.678137
 H     4.437292     3.272801    -2.030249
 H     5.139695     4.010005    -0.563106
 C     1.033772     2.320001     2.536192
 H     2.109427     2.153879     2.708349
 C     0.247176     1.234340     3.239082
 H     0.512619     0.243981     2.846382
 H    -0.833153     1.373005     3.089875
 H     0.459142     1.248783     4.319012
 C     0.657183     3.716103     2.984025
 H     1.249077     4.473331     2.449867
 H    -0.409146     3.908230     2.789683
 H     0.837292     3.831367     4.063115
 C    -3.026536     0.886615     0.708537
 C    -4.303143     0.532956     0.276632
 H    -4.619361    -0.505657     0.390337
 C    -2.562350     2.196166     0.580696
 H    -1.542846     2.434465     0.888067
 C    -5.149253     1.490349    -0.293318
 C    -6.529666     1.106607    -0.742840
 H    -7.202111     0.966432     0.119556
 H    -6.972724     1.878458    -1.387680
 H    -6.519828     0.158440    -1.301923
 C    -3.404334     3.150594     0.017452
 H    -3.050605     4.177695    -0.100152
 C    -4.682590     2.803842    -0.417113
 H    -5.328259     3.562617    -0.866865
 C    -2.497814    -2.736042    -1.390625
 H    -2.016039    -2.064279    -2.121220
 C    -3.944828    -2.953421    -1.775355
 H    -4.474133    -1.991187    -1.833270
 H    -4.453821    -3.586194    -1.031691
 H    -4.012463    -3.447125    -2.756101
 C    -1.691956    -4.016172    -1.297366
 H    -0.651523    -3.793647    -1.016076
 H    -2.122504    -4.691622    -0.541365
 H    -1.680450    -4.539995    -2.265013
 C    -1.272636    -2.677105     2.480391
 H    -2.290530    -2.852480     2.096259
 C    -1.352155    -1.941670     3.802027
 H    -1.873419    -0.983837     3.675737
 H    -0.344094    -1.744813     4.198203
 H    -1.900013    -2.546720     4.540370
 C    -0.537507    -3.997805     2.572195
 H    -0.513441    -4.496561     1.593198
 H     0.501478    -3.834032     2.897350
 H    -1.029219    -4.665875     3.295082
