  86
scf done:    -2079.405141
 C    -3.697711     1.451427    -1.520986
 H    -4.303688     2.127948    -0.909536
 H    -3.272730     1.922034    -2.412893
 C    -4.009891     0.065830    -1.553441
 H    -4.853497    -0.305351    -0.961639
 H    -3.825954    -0.510579    -2.463488
 H    -1.454720     0.296791    -1.805812
Rh    -2.215029     0.373226    -0.397633
 C     0.871439     1.756221    -1.227352
 C    -1.256003     3.682118    -0.456037
 C     0.290393     2.133326     1.646391
 C     0.410511    -1.511098     0.943363
 C    -2.237536    -2.794023     1.111487
 C    -0.721509    -2.686114    -1.524753
 P    -1.204951    -1.701733    -0.008003
 P    -0.557872     1.998889    -0.025474
 C    -3.209991     0.447546     1.213376
 O    -3.872487     0.467108     2.153957
 H     0.833380     0.678347    -1.439320
 H     0.544109     2.246068    -2.157416
 C     2.272885     2.146674    -0.859131
 C     2.871591     3.326521    -1.316903
 H     2.316901     3.999535    -1.973284
 C     3.041082     1.293015    -0.056574
 H     2.615076     0.344824     0.278692
 C     4.178041     3.644228    -0.952740
 H     4.631991     4.567442    -1.321482
 C     4.353092     1.591527     0.319976
 C     5.119855     0.646719     1.199742
 H     4.805259    -0.395298     1.038123
 H     6.202502     0.714779     1.019806
 H     4.950134     0.876619     2.265016
 C     4.914080     2.789830    -0.135021
 H     5.940822     3.046481     0.139731
 H    -1.828265     3.414790    -1.360308
 C    -2.271007     4.112409     0.598685
 H    -2.870778     4.956826     0.223415
 H    -2.960969     3.292950     0.846994
 H    -1.782211     4.445655     1.526702
 C    -0.305815     4.811087    -0.832688
 H     0.328613     4.543793    -1.687775
 H    -0.893622     5.693894    -1.134117
 H     0.349766     5.118205    -0.007776
 H     1.057968     1.344358     1.576386
 C     1.024209     3.437448     1.942360
 H     1.595654     3.330671     2.878919
 H     1.736676     3.708537     1.152376
 H     0.324791     4.274192     2.084785
 C    -0.642464     1.748117     2.788187
 H    -1.059058     0.742501     2.645098
 H    -0.090407     1.757914     3.741861
 H    -1.488268     2.444521     2.888028
 H     0.689278    -0.475410     0.714441
 H     0.120399    -1.511964     2.005553
 C     1.602714    -2.389523     0.706640
 C     1.994037    -3.379301     1.617367
 H     1.416287    -3.535675     2.530946
 C     2.396129    -2.193475    -0.430534
 H     2.127769    -1.405293    -1.139915
 C     3.122907    -4.156462     1.375197
 H     3.416675    -4.923958     2.095470
 C     3.536523    -2.959896    -0.690335
 C     4.349420    -2.704686    -1.926205
 H     4.595742    -1.635877    -2.024351
 H     5.289698    -3.273178    -1.916861
 H     3.792676    -2.992262    -2.832836
 C     3.888128    -3.954130     0.227889
 H     4.776401    -4.565618     0.048516
 H    -2.510794    -2.064484     1.894695
 C    -3.527094    -3.199042     0.404745
 H    -4.250943    -3.598462     1.132674
 H    -3.986779    -2.340714    -0.106059
 H    -3.344831    -3.986615    -0.342649
 C    -1.575172    -3.975060     1.808640
 H    -0.684163    -3.676950     2.376235
 H    -2.284219    -4.416739     2.528145
 H    -1.278880    -4.768700     1.110963
 H     0.179371    -2.138623    -1.853703
 C    -0.333708    -4.143725    -1.297934
 H     0.118124    -4.550097    -2.217512
 H     0.393733    -4.276716    -0.487025
 H    -1.219045    -4.758557    -1.076617
 C    -1.747438    -2.563805    -2.645715
 H    -1.955603    -1.510986    -2.873716
 H    -1.361966    -3.054323    -3.554184
 H    -2.700013    -3.048811    -2.385487
