  98
scf done:    -3157.201979
 C     0.177511     1.101021     3.605099
 H     0.966802     0.668269     4.228823
 H     0.238449     2.187725     3.501178
 C    -1.085574     0.455500     3.541813
 H    -1.247435    -0.468060     4.106852
 H    -1.989158     1.055302     3.397389
 H    -0.742538     1.521187     1.305399
Rh    -0.040975     0.151144     1.688247
 C     1.086144     2.269311    -0.804818
 C     3.241072     1.566360     1.029097
 C     2.236400    -0.403707    -0.852008
 C    -1.131950    -2.404554    -0.417617
 C    -3.156170    -1.169239     1.255007
 C    -2.332823     0.176148    -1.168665
 P    -1.631811    -0.768627     0.279346
 P     1.650050     0.916039     0.300102
 C     0.758418    -1.511931     2.190685
 O     1.205043    -2.527349     2.485631
 C     0.711594     2.042232    -2.131452
 H     0.872566     1.055811    -2.568785
 C     0.852086     3.550461    -0.259235
 O     1.186245     3.713244     1.035004
 C     0.794298     4.876004     1.711546
 H     1.296754     5.773761     1.311829
 H     1.088827     4.740649     2.759607
 H    -0.298629     5.020316     1.662770
 C     0.131611     3.042667    -2.911705
 H    -0.155714     2.833469    -3.943946
 C     0.282685     4.561129    -1.040015
 H     0.106811     5.550926    -0.618476
 C    -0.076803     4.302569    -2.362227
 H    -0.530061     5.096984    -2.959148
 H     3.789524     2.120681     0.254155
 H     2.929672     2.283606     1.799081
 C     4.088071     0.468169     1.598529
 C     3.720010    -0.175760     2.787463
 H     2.820580     0.153356     3.310531
 C     5.251267     0.039961     0.946461
 H     5.564834     0.532182     0.023215
 C     4.470652    -1.228715     3.301644
 H     4.182350    -1.740313     4.221453
 C     6.017798    -1.007468     1.450604
 H     6.924839    -1.344753     0.945915
 C     5.611293    -1.635279     2.620922
 F     6.336695    -2.644393     3.105337
 H     2.369271    -1.272862    -0.189682
 H     1.345068    -0.651616    -1.449761
 C     3.461207    -0.253320    -1.712489
 C     4.258995    -1.385353    -1.935046
 H     3.977803    -2.333684    -1.469506
 C     3.860615     0.952331    -2.302314
 H     3.271034     1.856905    -2.148502
 C     5.412513    -1.327088    -2.710238
 H     6.036950    -2.206980    -2.875706
 C     5.016778     1.031630    -3.077502
 H     5.333470     1.972345    -3.531636
 C     5.780799    -0.110789    -3.272763
 F     6.887897    -0.040493    -4.011204
 C    -1.207353    -3.526751     0.416431
 H    -1.637240    -3.421429     1.414492
 C    -0.542566    -2.575955    -1.687877
 O    -0.434729    -1.475424    -2.472424
 C     0.093250    -1.597067    -3.766165
 H     1.150743    -1.913336    -3.748759
 H     0.028219    -0.601392    -4.223600
 H    -0.488557    -2.307226    -4.377854
 C    -0.749645    -4.779481     0.018510
 H    -0.829697    -5.629688     0.698216
 C    -0.081526    -3.832017    -2.094972
 H     0.369735    -3.959488    -3.078774
 C    -0.187909    -4.929953    -1.244244
 H     0.178449    -5.903971    -1.576165
 H    -2.825537    -1.861761     2.046668
 H    -3.357313    -0.226400     1.785956
 C    -4.417193    -1.648293     0.587521
 C    -5.648405    -1.178435     1.066294
 H    -5.661244    -0.472403     1.900554
 C    -4.433223    -2.538576    -0.493173
 H    -3.495343    -2.930816    -0.888301
 C    -6.853945    -1.567537     0.491502
 H    -7.811576    -1.197040     0.861768
 C    -5.630663    -2.933796    -1.087407
 H    -5.645478    -3.623335    -1.933438
 C    -6.829063    -2.441835    -0.588291
 F    -7.976676    -2.814989    -1.154048
 H    -1.465914     0.533401    -1.736335
 H    -2.876383    -0.534414    -1.806320
 C    -3.218522     1.323031    -0.782786
 C    -4.611020     1.229893    -0.898411
 H    -5.060247     0.309685    -1.277281
 C    -2.671986     2.530756    -0.329732
 H    -1.589309     2.634617    -0.264425
 C    -5.439356     2.292858    -0.545829
 H    -6.525022     2.223315    -0.633935
 C    -3.484322     3.603058     0.025128
 H    -3.061590     4.547630     0.372683
 C    -4.862993     3.466871    -0.078858
 F    -5.648280     4.490771     0.261334
