 100
scf done:    -2462.602867
 C    -1.184255    -1.282067    -3.077638
 H    -1.957395    -2.053291    -3.008857
 H    -1.510584    -0.364873    -3.577497
 C     0.183083    -1.639839    -3.102647
 H     0.467549    -2.695780    -3.060702
 H     0.909081    -1.003427    -3.616365
 H    -0.038416     0.578777    -1.769195
Rh    -0.314285    -0.853968    -1.142885
 C    -2.355968     1.909703    -1.115200
 C    -3.712471    -0.576351    -0.572844
 C    -2.195994     0.746406     1.545466
 C     1.895658     1.236746     0.636224
 C     2.082451    -1.600534     1.272934
 C     3.341461    -0.480578    -1.083541
 P     1.753181    -0.441547    -0.122598
 P    -2.120808     0.293485    -0.244827
 C    -0.711079    -2.561152    -0.394744
 O    -0.975925    -3.593609     0.031362
 H    -3.394262     2.259520    -1.024332
 H    -2.176593     1.673314    -2.173615
 C    -1.380452     2.976314    -0.645485
 H    -1.631372     3.270506     0.387672
 H    -0.366959     2.543184    -0.599785
 C    -1.340281     4.223671    -1.533141
 H    -2.379222     4.586925    -1.650092
 C    -0.531159     5.327831    -0.862566
 H    -0.930403     5.574609     0.133627
 H    -0.531220     6.249489    -1.464848
 H     0.518624     5.017792    -0.731609
 C    -0.784985     3.920281    -2.920988
 H    -0.763406     4.825543    -3.547047
 H    -1.379777     3.164823    -3.455572
 H     0.246455     3.536371    -2.849666
 C    -4.370118    -0.290960    -1.779507
 H    -3.970151     0.472729    -2.447668
 C    -4.225728    -1.593114     0.264770
 C    -3.599567    -1.987872     1.571450
 H    -3.837758    -1.265883     2.368142
 H    -2.505706    -2.040157     1.512754
 H    -3.966451    -2.974293     1.886792
 C    -5.523287    -0.968825    -2.161339
 H    -6.010381    -0.723547    -3.107939
 C    -5.389291    -2.259408    -0.140361
 H    -5.788382    -3.045208     0.506971
 C    -6.040729    -1.959293    -1.332371
 H    -6.944448    -2.504389    -1.614774
 C    -1.154706     0.240997     2.331108
 H    -0.404878    -0.386552     1.842727
 C    -3.215056     1.510183     2.156999
 C    -4.394357     2.066347     1.412315
 H    -4.777800     1.360479     0.662344
 H    -4.131213     2.999322     0.887805
 H    -5.211080     2.305307     2.107369
 C    -1.082559     0.483749     3.698904
 H    -0.264835     0.059065     4.285572
 C    -3.122265     1.750287     3.534524
 H    -3.908577     2.338131     4.016483
 C    -2.072781     1.252971     4.302796
 H    -2.040086     1.456735     5.375917
 H     1.125292     1.292627     1.422258
 H     1.537908     1.913900    -0.152405
 C     3.267579     1.661435     1.142072
 H     3.755518     0.825167     1.669802
 H     3.921294     1.877700     0.279262
 C     3.236835     2.877694     2.070608
 H     2.629105     2.602791     2.954730
 C     4.642789     3.210751     2.554608
 H     5.113259     2.346393     3.048749
 H     4.635405     4.047301     3.270547
 H     5.288308     3.500942     1.708931
 C     2.577036     4.086579     1.417013
 H     2.598602     4.961599     2.084931
 H     1.524423     3.894270     1.162653
 H     3.102758     4.365049     0.487489
 C     2.066462    -1.124912     2.593208
 H     1.979101    -0.055457     2.786517
 C     2.199355    -2.993157     1.049346
 C     2.275386    -3.605477    -0.320883
 H     3.319894    -3.832847    -0.587272
 H     1.879004    -2.941344    -1.100669
 H     1.710374    -4.547802    -0.352957
 C     2.148436    -1.988563     3.681178
 H     2.131525    -1.586301     4.697028
 C     2.280026    -3.842478     2.159615
 H     2.361567    -4.919045     1.985538
 C     2.252956    -3.359149     3.463463
 H     2.313028    -4.051976     4.306025
 C     4.406648    -1.265167    -0.618568
 H     4.294179    -1.820802     0.313424
 C     3.531786     0.297207    -2.250275
 C     2.529165     1.292707    -2.752731
 H     2.609786     2.238625    -2.189539
 H     1.496249     0.936186    -2.633313
 H     2.707048     1.530272    -3.810679
 C     5.615261    -1.344778    -1.303201
 H     6.421368    -1.969153    -0.910747
 C     4.750917     0.189537    -2.932727
 H     4.889009     0.779709    -3.842996
 C     5.783764    -0.624651    -2.481308
 H     6.720459    -0.683078    -3.040824
