 100
scf done:    -2462.619876
 C     1.282860     1.226289     3.431711
 H     1.808433     0.533502     4.097259
 H     1.880466     2.088424     3.122667
 C    -0.128256     1.345501     3.538640
 H    -0.658071     0.743374     4.283687
 H    -0.618532     2.295794     3.310140
 H     0.415154     1.731301     1.123634
Rh     0.338733     0.269136     1.743492
 C     2.168653     1.044520    -1.200397
 C     3.595701    -0.700468     0.548062
 C     1.402789    -1.709096    -0.939555
 C    -2.098255    -1.520334    -0.083301
 C    -3.133178     0.808225     1.206083
 C    -1.464763     1.130660    -1.102194
 P    -1.584223     0.169147     0.456002
 P     1.877173    -0.252099     0.075662
 C     0.220370    -1.447617     2.560787
 O     0.122367    -2.476896     3.064158
 H     2.857943     0.639914    -1.960801
 H     1.196851     1.225068    -1.687874
 C     2.700577     2.347977    -0.628983
 H     2.013188     2.688359     0.163939
 H     3.674014     2.175615    -0.137155
 C     2.838574     3.432032    -1.688417
 H     1.877102     3.533456    -2.223037
 H     3.572497     3.115726    -2.452193
 C     3.245737     4.785255    -1.123666
 H     2.513795     5.086704    -0.353022
 H     4.208586     4.683735    -0.592531
 C     3.352809     5.872499    -2.180484
 H     3.647212     6.839240    -1.744446
 H     2.390573     6.020133    -2.697574
 H     4.099743     5.612234    -2.947809
 C     4.049924    -0.410911     1.834323
 H     3.357193     0.040945     2.547119
 C     4.466606    -1.295724    -0.374440
 H     4.104597    -1.540644    -1.378054
 C     5.367762    -0.707373     2.185685
 H     5.725755    -0.480399     3.192953
 C     5.785567    -1.601827    -0.035689
 C     6.712397    -2.250223    -1.023232
 H     6.227423    -2.387048    -1.999840
 H     7.619730    -1.644849    -1.176928
 H     7.041388    -3.240496    -0.669436
 C     6.224206    -1.295030     1.261271
 H     7.254090    -1.528130     1.547387
 C     1.059989    -1.628783    -2.292616
 H     1.150161    -0.687367    -2.834973
 C     1.274130    -2.940066    -0.281954
 H     1.545156    -3.011720     0.774838
 C     0.565668    -2.755311    -2.953045
 H     0.285219    -2.683664    -4.007204
 C     0.784260    -4.075134    -0.928680
 C     0.656794    -5.378350    -0.195286
 H     1.568053    -5.988043    -0.313501
 H     0.506956    -5.216012     0.881711
 H    -0.186613    -5.972891    -0.575774
 C     0.418363    -3.962697    -2.278083
 H     0.014769    -4.833964    -2.801369
 H    -1.296552    -1.879084    -0.750216
 H    -2.011643    -2.140079     0.824180
 C    -3.471478    -1.695502    -0.713083
 H    -4.249409    -1.465351     0.033712
 H    -3.620260    -0.964509    -1.526091
 C    -3.676741    -3.103025    -1.257212
 H    -3.520433    -3.834633    -0.443377
 H    -2.891279    -3.322377    -2.004045
 C    -5.047326    -3.323367    -1.881006
 H    -5.826082    -3.105307    -1.128976
 H    -5.199264    -2.584751    -2.688221
 C    -5.241974    -4.727908    -2.428863
 H    -6.239889    -4.857864    -2.874560
 H    -5.131171    -5.484542    -1.635355
 H    -4.497144    -4.959259    -3.207619
 C    -3.364221     0.534081     2.557319
 H    -2.593658     0.021938     3.138170
 C    -4.107904     1.490742     0.469562
 H    -3.932501     1.705783    -0.587983
 C    -4.561976     0.926336     3.150494
 H    -4.743522     0.706364     4.205438
 C    -5.307056     1.905886     1.056770
 C    -6.330911     2.666039     0.263825
 H    -6.143730     2.585794    -0.816290
 H    -7.349021     2.298861     0.463385
 H    -6.316136     3.737442     0.524164
 C    -5.522669     1.608351     2.408185
 H    -6.456502     1.920128     2.884871
 C    -1.469541     0.542320    -2.370828
 H    -1.624831    -0.530520    -2.485584
 C    -1.243392     2.510401    -0.998044
 H    -1.214036     2.967724    -0.004613
 C    -1.239831     1.325475    -3.502363
 H    -1.229767     0.857800    -4.490162
 C    -1.026663     3.309963    -2.122207
 C    -0.807142     4.787828    -1.974444
 H    -1.760672     5.312892    -1.799774
 H    -0.152596     5.011061    -1.118649
 H    -0.350864     5.220889    -2.875983
 C    -1.018259     2.694142    -3.381230
 H    -0.831265     3.296991    -4.274080
