 102
scf done:    -3061.297336
 C    -1.528815    -3.890049    -1.454795
 H    -2.280324    -4.318888    -0.785379
 H    -1.916313    -3.594283    -2.432673
 C    -0.163765    -4.222332    -1.307619
 H     0.148340    -4.917090    -0.522532
 H     0.503817    -4.184184    -2.171990
 H    -0.237885    -1.770631    -2.026984
Rh    -0.496598    -2.224268    -0.528044
 O    -1.348734     0.735118    -1.617397
 O    -3.413124    -0.512081    -1.040959
 O    -1.943274     0.354370     0.883168
 O     1.251330     0.438255     0.100882
 O     2.356395    -1.644999     1.132549
 O     2.568899    -1.138369    -1.372583
 P     1.447545    -1.183849    -0.165688
 P    -1.817749    -0.418186    -0.567463
 C    -0.866807    -2.838478     1.263392
 O    -1.118168    -3.195480     2.319990
 C    -1.588453     2.090634    -1.572339
 C    -2.876840     2.594159    -1.723316
 H    -3.703929     1.895716    -1.862245
 C    -0.494361     2.934053    -1.398887
 H     0.498805     2.499518    -1.283414
 C    -3.101719     3.972058    -1.654274
 C    -4.498374     4.514735    -1.729416
 H    -5.135995     3.901094    -2.382160
 H    -4.957277     4.516198    -0.726595
 H    -4.513035     5.548373    -2.103731
 C    -0.714424     4.307472    -1.354175
 H     0.132725     4.983282    -1.213821
 C    -2.004062     4.822056    -1.471305
 H    -2.165329     5.902023    -1.420344
 C    -4.168473    -1.613590    -0.732248
 C    -4.170182    -2.156482     0.551596
 H    -3.570310    -1.690754     1.336707
 C    -4.938628    -2.181291    -1.746755
 H    -4.911445    -1.738536    -2.743604
 C    -4.926085    -3.299716     0.839617
 C    -4.904493    -3.878527     2.224347
 H    -3.872633    -3.993898     2.589701
 H    -5.426686    -3.218502     2.936064
 H    -5.394422    -4.861415     2.257908
 C    -5.702337    -3.307097    -1.460140
 H    -6.305440    -3.763996    -2.248378
 C    -5.691118    -3.868668    -0.182386
 H    -6.285073    -4.762450     0.024197
 C    -2.678804     1.467425     1.237636
 C    -4.070263     1.431623     1.256328
 H    -4.592804     0.519489     0.966632
 C    -1.984266     2.611996     1.623841
 H    -0.894177     2.608015     1.606448
 C    -4.799216     2.567492     1.627259
 C    -6.300109     2.539964     1.592802
 H    -6.733062     3.360022     2.182881
 H    -6.670636     2.642558     0.558941
 H    -6.694680     1.589829     1.982511
 C    -2.707085     3.738834     1.997443
 H    -2.172604     4.645342     2.290371
 C    -4.101728     3.721650     1.996463
 H    -4.657396     4.615778     2.291226
 C     1.755074     1.229661     1.095899
 C     2.713482     2.185791     0.775500
 H     3.067739     2.256130    -0.254150
 C     1.267534     1.104540     2.397740
 H     0.498503     0.362153     2.615429
 C     3.236472     3.021895     1.767577
 C     4.296546     4.023504     1.412371
 H     5.197424     3.519370     1.027086
 H     3.949308     4.705313     0.620423
 H     4.589821     4.629554     2.280744
 C     1.784801     1.937518     3.385491
 H     1.417544     1.848602     4.410541
 C     2.764184     2.883192     3.077380
 H     3.164724     3.526382     3.865098
 C     3.728325    -1.619154     1.235030
 C     4.475169    -2.593676     0.577830
 H     3.951914    -3.344650    -0.017686
 C     4.349841    -0.643466     2.013636
 H     3.748694     0.101340     2.534653
 C     5.872446    -2.591732     0.654929
 C     6.668242    -3.630456    -0.080624
 H     6.380014    -4.646586     0.230927
 H     6.496202    -3.564959    -1.166720
 H     7.745922    -3.513915     0.098827
 C     5.739124    -0.642453     2.096543
 H     6.238048     0.119682     2.699988
 C     6.495776    -1.598472     1.418632
 H     7.586399    -1.579992     1.488727
 C     3.190736    -0.005468    -1.845229
 C     4.518485     0.237662    -1.509362
 H     5.042558    -0.472052    -0.868040
 C     2.479250     0.879576    -2.655530
 H     1.436719     0.666585    -2.898765
 C     5.160243     1.397412    -1.959259
 C     6.591724     1.652321    -1.586064
 H     6.795521     1.328090    -0.554547
 H     7.276124     1.090603    -2.243320
 H     6.849051     2.717462    -1.675060
 C     3.114057     2.034697    -3.102135
 H     2.561733     2.744997    -3.722039
 C     4.439758     2.297053    -2.752872
 H     4.922014     3.214183    -3.101113
