 104
scf done:    -2763.404688
 C    -0.127595    -4.017959    -1.055405
 H     0.676192    -4.485536    -1.631797
 H    -0.243011    -4.411254    -0.041751
 C    -1.247627    -3.467976    -1.722818
 H    -1.305263    -3.510906    -2.814204
 H    -2.217771    -3.424990    -1.220657
 H    -0.868109    -1.973862     0.267866
Rh     0.022541    -1.853023    -1.034539
 C     3.298700    -2.114596     0.442570
 O     2.024261     0.281127     0.393601
 O     1.351370    -1.612063     2.069715
 C    -0.551439     1.426865    -2.274375
 O    -2.708798     0.149107    -1.470728
 O    -1.024305     0.822872     0.362738
 P    -1.077552     0.103244    -1.132477
 P     1.642646    -1.347654     0.448891
 C     0.988328    -1.709448    -2.688530
 O     1.525214    -1.601030    -3.696302
 H     3.845020    -1.774665     1.337069
 H     3.116002    -3.195061     0.564370
 C     4.083774    -1.827599    -0.828337
 H     3.506853    -2.164982    -1.705406
 H     4.208665    -0.737506    -0.945929
 C     5.453484    -2.491030    -0.840269
 H     5.332491    -3.583542    -0.724717
 H     6.028574    -2.157093     0.042374
 C     6.250528    -2.199456    -2.103892
 H     5.666827    -2.526563    -2.982425
 H     6.363958    -1.106236    -2.212504
 C     7.618866    -2.860999    -2.121070
 H     8.170388    -2.630594    -3.045141
 H     7.533561    -3.957344    -2.049666
 H     8.236141    -2.524459    -1.272452
 C     3.033739     0.949144     1.025084
 C     3.688348     1.941706     0.289420
 H     3.391976     2.103682    -0.749227
 C     3.391321     0.727378     2.356030
 H     2.874808    -0.037227     2.936466
 C     4.692047     2.698986     0.880719
 H     5.192864     3.472585     0.291491
 C     4.406995     1.492918     2.928701
 H     4.678694     1.309772     3.972007
 C     5.076339     2.488381     2.212175
 C     6.173968     3.301864     2.834621
 H     7.148611     3.080292     2.369823
 H     6.264874     3.097469     3.910611
 H     5.995223     4.381301     2.709869
 C     0.123463    -1.419323     2.651849
 C    -0.702893    -2.515088     2.886339
 H    -0.365946    -3.508128     2.584543
 C    -0.284150    -0.141985     3.029995
 H     0.365406     0.712216     2.834152
 C    -1.943641    -2.324957     3.490011
 H    -2.586890    -3.190867     3.669260
 C    -1.528828     0.034133     3.624628
 H    -1.847240     1.043792     3.898153
 C    -2.385926    -1.049114     3.857685
 C    -3.751341    -0.836018     4.444295
 H    -4.169587    -1.770533     4.845047
 H    -4.452627    -0.461053     3.679608
 H    -3.731810    -0.094729     5.257109
 H     0.400233     1.783748    -1.841434
 H    -0.275401     0.899978    -3.203629
 C    -1.499880     2.579649    -2.575701
 H    -2.420560     2.178337    -3.028223
 H    -1.812279     3.071179    -1.642625
 C    -0.872012     3.618068    -3.494354
 H    -0.569330     3.142562    -4.445496
 H     0.061600     3.992210    -3.035304
 C    -1.794037     4.794512    -3.782798
 H    -2.728845     4.418171    -4.234580
 H    -2.091482     5.257099    -2.825011
 C    -1.171785     5.843814    -4.689450
 H    -1.861296     6.681045    -4.876623
 H    -0.896120     5.415580    -5.666738
 H    -0.254142     6.262009    -4.244861
 C    -3.588161    -0.778059    -0.979989
 C    -3.572290    -1.189296     0.353008
 H    -2.834274    -0.786579     1.048432
 C    -4.531149    -1.306845    -1.861937
 H    -4.520278    -0.975837    -2.902043
 C    -4.495613    -2.140791     0.783853
 H    -4.462717    -2.466770     1.826760
 C    -5.450040    -2.246771    -1.410648
 H    -6.180951    -2.657689    -2.112991
 C    -5.448619    -2.687376    -0.079761
 C    -6.445954    -3.704324     0.395271
 H    -6.228562    -4.029660     1.422406
 H    -6.446823    -4.597781    -0.248530
 H    -7.470366    -3.297262     0.384195
 C    -1.342199     2.114463     0.666162
 C    -2.670322     2.498378     0.852314
 H    -3.464356     1.760941     0.724298
 C    -0.312617     3.040537     0.831873
 H     0.720094     2.711933     0.699392
 C    -2.959742     3.821901     1.171765
 H    -4.003412     4.121095     1.303289
 C    -0.621460     4.359816     1.151773
 H     0.190423     5.082778     1.270690
 C    -1.946874     4.777950     1.322550
 C    -2.270674     6.196656     1.692726
 H    -3.247152     6.505210     1.291722
 H    -1.510425     6.895371     1.314448
 H    -2.313336     6.321798     2.787870
