 104
scf done:    -2763.273604
 C    -0.912526    -2.253747    -2.892393
 H    -1.552549    -3.122684    -2.711880
 H    -1.396671    -1.466522    -3.477139
 C     0.495444    -2.416138    -2.957324
 H     0.924771    -3.415592    -2.829825
 H     1.090887    -1.751362    -3.589433
 H     0.142643    -0.132787    -1.953747
Rh    -0.031576    -1.462843    -1.094575
 C    -1.860526    -0.206867     1.732559
 C    -1.975076     1.453719    -0.581926
 C    -3.478002    -0.975621    -0.467064
 C     2.341590    -1.334312     1.509688
 C     3.339845    -0.394830    -0.998619
 C     1.497024     1.237871     0.453806
 P     1.779418    -0.500881    -0.045039
 P    -1.804526    -0.308113    -0.113888
 C    -0.051103    -3.106927    -0.138498
 O     0.011001    -4.117282     0.408706
 H    -2.817988     0.255018     2.028182
 H    -1.052086     0.484327     2.016149
 C    -1.688956    -1.547508     2.423442
 H    -2.414712    -2.272007     2.015950
 H    -0.692885    -1.954747     2.181845
 C    -1.850456    -1.498564     3.945202
 H    -2.881769    -1.159249     4.158907
 C    -1.682627    -2.894427     4.533934
 H    -2.387313    -3.608721     4.080956
 H    -1.849093    -2.897383     5.622361
 H    -0.663818    -3.275122     4.350156
 C    -0.890773    -0.512422     4.603305
 H    -1.007624    -0.516603     5.698121
 H    -1.052639     0.519840     4.257747
 H     0.156682    -0.779000     4.384330
 C    -1.850680     1.801232    -1.937972
 H    -1.669722     1.013885    -2.673543
 C    -2.193237     2.481039     0.336623
 H    -2.301280     2.261191     1.399173
 C    -1.915457     3.120523    -2.350015
 H    -1.800799     3.394385    -3.400528
 C    -2.249994     3.817340    -0.061831
 H    -2.387200     4.591613     0.692498
 C    -2.088400     4.147114    -1.408829
 O    -2.065434     5.407138    -1.885014
 C    -2.079083     6.466967    -0.967023
 H    -1.241563     6.387718    -0.252214
 H    -1.972880     7.389931    -1.551269
 H    -3.029653     6.512154    -0.405931
 C    -3.647350    -2.359299    -0.628359
 H    -2.769410    -3.008808    -0.602983
 C    -4.609865    -0.160344    -0.538788
 H    -4.505177     0.922444    -0.431055
 C    -4.903495    -2.908133    -0.833629
 H    -5.041171    -3.983793    -0.958543
 C    -5.878462    -0.696403    -0.759666
 H    -6.736159    -0.025926    -0.820523
 C    -6.032411    -2.079962    -0.904092
 O    -7.211786    -2.695996    -1.119027
 C    -8.371862    -1.919401    -1.212645
 H    -8.321441    -1.203557    -2.052257
 H    -9.202969    -2.614045    -1.389213
 H    -8.568396    -1.358527    -0.281546
 H     2.415816    -2.398675     1.230224
 H     1.486617    -1.275262     2.202989
 C     3.639180    -0.867997     2.149564
 H     4.438634    -0.900326     1.392159
 H     3.559269     0.191096     2.452532
 C     4.082613    -1.698384     3.357936
 H     4.194690    -2.744423     3.015278
 C     5.443081    -1.219344     3.851407
 H     6.195248    -1.249674     3.047880
 H     5.811560    -1.838820     4.683818
 H     5.383931    -0.178489     4.211638
 C     3.058665    -1.686952     4.487544
 H     3.423135    -2.251361     5.359779
 H     2.101708    -2.138010     4.185246
 H     2.854490    -0.655409     4.822758
 C     4.268864     0.647895    -0.852758
 H     4.050857     1.481007    -0.180345
 C     3.651694    -1.442161    -1.866928
 H     2.923672    -2.246086    -2.000452
 C     5.463365     0.639642    -1.556072
 H     6.188610     1.449386    -1.455139
 C     4.855105    -1.470736    -2.570602
 H     5.060880    -2.306002    -3.240387
 C     5.769330    -0.421947    -2.420393
 O     6.951986    -0.345350    -3.061151
 C     7.310484    -1.373433    -3.940978
 H     6.594976    -1.467334    -4.776918
 H     8.296356    -1.112030    -4.345998
 H     7.383330    -2.348148    -3.426792
 C     1.363516     2.211840    -0.552532
 H     1.484230     1.922925    -1.599578
 C     1.300588     1.635592     1.775761
 H     1.386334     0.913166     2.589876
 C     1.069459     3.527417    -0.244444
 H     0.959154     4.279653    -1.027220
 C     0.979356     2.957134     2.101630
 H     0.825063     3.221405     3.148046
 C     0.863685     3.910323     1.088512
 O     0.541186     5.207163     1.295212
 C     0.297591     5.635748     2.604953
 H     1.184194     5.508393     3.250493
 H     0.052272     6.704089     2.548500
 H    -0.551963     5.097080     3.061908
