  90
scf done:    -3300.851580
 C     0.228232     1.165686    -3.602381
 H     0.254805     2.221994    -3.887472
 H     1.100711     0.587191    -3.916977
 C    -1.012974     0.520468    -3.428670
 H    -1.939529     1.084212    -3.568793
 H    -1.105349    -0.556563    -3.587063
 H     0.617746    -0.500682    -1.697835
Rh    -0.156377     0.868337    -1.467289
 C     3.246334     1.794435    -0.848246
 O     1.561379     2.381805     1.027507
 O     2.060417    -0.077415     0.753760
 C    -0.964658    -1.609315     1.068553
 O    -2.853441     0.039129     0.434088
 O    -2.155699    -1.682768    -1.365225
 P    -1.490935    -0.562998    -0.327343
 P     1.645383     1.247812    -0.178082
 C    -1.005030     2.593846    -1.311379
 O    -1.449429     3.647402    -1.312838
 C     3.272086     2.208304    -2.179704
 H     2.335543     2.168838    -2.740306
 C     4.436725     1.835058    -0.087804
 O     4.356317     1.442594     1.190012
 C     5.524384     1.315909     1.952216
 H     6.229869     0.601326     1.494400
 H     5.213981     0.931736     2.931515
 H     6.028832     2.287303     2.092703
 C     4.450802     2.646172    -2.780134
 H     4.452056     2.968035    -3.823023
 C     5.624253     2.257242    -0.695537
 H     6.555443     2.280060    -0.129556
 C     5.622547     2.660489    -2.030451
 H     6.559995     2.991338    -2.484556
 C     0.483234     2.565077     1.842966
 C    -0.155896     3.805722     1.824498
 H     0.189792     4.567628     1.124421
 C     0.059375     1.565687     2.719905
 H     0.568947     0.601328     2.720453
 C    -1.218745     4.055150     2.686602
 H    -1.740258     5.013794     2.684904
 C    -1.005006     1.812453     3.583184
 H    -1.355931     1.049686     4.280346
 C    -1.630348     3.052089     3.555544
 F    -2.670970     3.275296     4.362998
 C     2.988569    -1.025887     0.492987
 C     3.470192    -1.754874     1.585200
 H     3.076703    -1.526134     2.576564
 C     3.459643    -1.313014    -0.792308
 H     3.063556    -0.776272    -1.654278
 C     4.431185    -2.744263     1.403139
 H     4.821564    -3.318598     2.245428
 C     4.431961    -2.295159    -0.974939
 H     4.817607    -2.525531    -1.969684
 C     4.910687    -2.998094     0.122130
 F     5.842333    -3.938573    -0.053725
 C    -1.450420    -1.400675     2.360221
 H    -2.203230    -0.627723     2.512949
 C    -0.012436    -2.625175     0.850792
 O     0.395366    -2.795733    -0.416132
 C     1.209241    -3.893006    -0.737209
 H     2.174047    -3.854149    -0.207410
 H     1.399799    -3.830403    -1.815325
 H     0.696125    -4.843377    -0.510560
 C    -0.996247    -2.166554     3.431671
 H    -1.391258    -1.994183     4.434997
 C     0.441268    -3.398682     1.923663
 H     1.178656    -4.184114     1.761992
 C    -0.048205    -3.160622     3.206136
 H     0.314466    -3.771982     4.036118
 C    -3.537181     1.118595    -0.052617
 C    -3.769718     2.193312     0.803524
 H    -3.389653     2.153207     1.824120
 C    -4.008761     1.144368    -1.366612
 H    -3.829171     0.287397    -2.017989
 C    -4.465825     3.307009     0.345386
 H    -4.653590     4.164628     0.993558
 C    -4.697690     2.261713    -1.830399
 H    -5.071594     2.313829    -2.854391
 C    -4.913228     3.331642    -0.970132
 F    -5.569036     4.403026    -1.415424
 C    -2.674857    -2.895411    -1.004367
 C    -3.617344    -3.030730     0.016842
 H    -3.955040    -2.146594     0.558260
 C    -2.240981    -4.016431    -1.713127
 H    -1.505551    -3.879495    -2.507194
 C    -4.113957    -4.292135     0.336296
 H    -4.847646    -4.425778     1.133100
 C    -2.741227    -5.276883    -1.401358
 H    -2.420602    -6.168478    -1.943345
 C    -3.669259    -5.399898    -0.373405
 F    -4.145125    -6.607823    -0.066532
