 108
scf done:    -2965.629354
 C     0.269647    -1.303365    -3.722295
 H     0.834474    -0.719297    -4.455800
 H     0.769443    -2.225188    -3.407051
 C    -1.149348    -1.250115    -3.727335
 H    -1.662228    -0.625535    -4.465729
 H    -1.720859    -2.125500    -3.404592
 H    -0.490213    -1.541650    -1.312307
Rh    -0.404744    -0.132273    -2.046348
 C     2.381887    -1.556924    -0.555559
 C     2.820920     1.156492    -1.719730
 C     1.375556     0.857502     0.882413
 C    -2.381502     2.168228    -0.323362
 C    -3.871934     0.011497    -1.653616
 C    -2.474322    -0.373107     0.951242
 P    -2.258239     0.343853    -0.753670
 P     1.555209     0.100999    -0.826124
 C    -0.347416     1.556348    -2.921520
 O    -0.310474     2.593343    -3.419082
 H     1.961099    -1.943825     0.383469
 H     1.964457    -2.172381    -1.363989
 C     3.874993    -1.660313    -0.545749
 C     4.578457    -1.812505    -1.748915
 H     4.025988    -1.877222    -2.690599
 C     4.607391    -1.633173     0.647841
 H     4.084494    -1.551447     1.600780
 C     5.970044    -1.887059    -1.773361
 H     6.523205    -1.995532    -2.707851
 C     5.996410    -1.708182     0.642861
 H     6.569709    -1.679424     1.571309
 C     6.661999    -1.819560    -0.571121
 F     7.996834    -1.854077    -0.581135
 H     3.345077     0.462211    -2.393062
 H     2.210414     1.805363    -2.362215
 C     3.791922     2.000023    -0.951198
 C     3.408035     3.272177    -0.507548
 H     2.405560     3.645709    -0.735804
 C     5.097550     1.569078    -0.688702
 H     5.414660     0.588702    -1.045701
 C     4.299941     4.069877     0.207005
 H     3.987535     5.057855     0.553923
 C     6.011204     2.362053     0.010451
 C     7.419972     1.895124     0.237479
 H     7.534427     0.825726     0.015788
 H     8.122911     2.445203    -0.409483
 H     7.738105     2.068115     1.276748
 C     5.590224     3.617148     0.470021
 H     6.287189     4.251080     1.025499
 H     1.462647     1.943599     0.726320
 H     0.323906     0.657995     1.130062
 C     2.251027     0.399989     2.010064
 C     1.860630    -0.691785     2.798277
 H     0.904195    -1.186671     2.610325
 C     3.457740     1.040847     2.310145
 H     3.763993     1.905658     1.720477
 C     2.675422    -1.141634     3.835081
 H     2.357326    -1.991231     4.444339
 C     4.289975     0.598177     3.342811
 C     5.606646     1.270885     3.597991
 H     5.586467     2.323161     3.281403
 H     5.886997     1.227224     4.660477
 H     6.408507     0.777136     3.023698
 C     3.886503    -0.506862     4.102163
 H     4.522203    -0.865322     4.916494
 H    -1.501079     2.360469     0.310651
 H    -2.200206     2.695087    -1.271667
 C    -3.642111     2.652709     0.317594
 C    -4.672233     3.199892    -0.460702
 H    -4.518666     3.338848    -1.534084
 C    -3.856095     2.535781     1.698871
 H    -3.058482     2.150947     2.337996
 C    -5.893177     3.566615     0.100255
 H    -6.701905     3.978696    -0.505536
 C    -5.070309     2.892931     2.277264
 H    -5.246092     2.790102     3.349491
 C    -6.082182     3.388603     1.464092
 F    -7.260605     3.696006     2.006919
 H    -4.246412     1.000744    -1.959936
 H    -3.562175    -0.508415    -2.568598
 C    -4.954749    -0.765789    -0.967217
 C    -5.180446    -2.102169    -1.311345
 H    -4.554394    -2.575277    -2.072026
 C    -5.767838    -0.183233     0.014000
 H    -5.615519     0.863280     0.281252
 C    -6.191612    -2.829522    -0.687403
 H    -6.358893    -3.872746    -0.966077
 C    -6.781049    -0.899318     0.656834
 C    -7.621133    -0.251899     1.720467
 H    -7.513792     0.841636     1.712072
 H    -8.687268    -0.492879     1.592651
 H    -7.328650    -0.604943     2.723347
 C    -6.984360    -2.237088     0.291603
 H    -7.776039    -2.815211     0.776454
 H    -1.710054     0.148370     1.551770
 H    -3.455640    -0.046726     1.324287
 C    -2.331717    -1.855752     1.130235
 C    -3.446551    -2.651057     1.416952
 H    -4.435834    -2.194065     1.483353
 C    -1.076788    -2.466684     1.066053
 H    -0.207145    -1.850354     0.838620
 C    -3.296636    -4.019985     1.616339
 H    -4.175291    -4.631412     1.835961
 C    -0.905012    -3.839958     1.266081
 C     0.462964    -4.452490     1.172169
 H     1.183201    -3.934889     1.825937
 H     0.451323    -5.513544     1.457883
 H     0.856519    -4.385533     0.145027
 C    -2.037410    -4.612818     1.539853
 H    -1.929345    -5.689084     1.700428
