 104
scf done:    -2513.498039
 C     0.262003     2.473492    -2.909891
 H    -0.045997     2.030454    -3.862186
 H    -0.336148     3.333556    -2.598224
 C     1.609951     2.383624    -2.495934
 H     2.341675     1.872343    -3.129634
 H     2.031934     3.174077    -1.869354
 H     0.222931     2.237051    -0.307420
Rh     0.418671     1.002514    -1.318169
 C    -2.857719    -0.340706    -2.013452
 C    -2.520765     0.340064     0.755342
 C    -2.717438     2.402943    -1.248886
 C     1.570957     0.042315     2.040488
 C     3.080499    -1.023761    -0.149990
 C     3.210989     1.781920     0.527309
 P     1.996601     0.411383     0.278135
 P    -1.864696     0.794560    -0.903932
 C     0.727463    -0.468601    -2.463362
 O     0.979513    -1.346648    -3.166207
 H    -3.887326     0.047394    -2.048769
 H    -2.425384    -0.217766    -3.017715
 C    -2.885141    -1.786718    -1.615403
 C    -1.925366    -2.696426    -2.077435
 H    -1.138252    -2.359255    -2.752231
 C    -3.892385    -2.271560    -0.768531
 H    -4.661051    -1.587122    -0.401170
 C    -1.964993    -4.040573    -1.711988
 H    -1.221301    -4.751289    -2.076864
 C    -3.947825    -3.610207    -0.391987
 H    -4.731752    -3.988894     0.266076
 C    -2.979474    -4.482962    -0.873119
 F    -3.022410    -5.766316    -0.518055
 H    -3.623066     0.372167     0.737078
 H    -2.240849    -0.711447     0.917386
 C    -1.967440     1.191297     1.884786
 H    -0.873888     1.251478     1.769982
 H    -2.331013     2.231033     1.797505
 C    -2.312274     0.633672     3.258248
 H    -2.017947    -0.429671     3.293384
 H    -3.408224     0.648875     3.401729
 C    -1.638375     1.371370     4.405473
 H    -0.545262     1.355135     4.245292
 H    -1.927427     2.437239     4.380444
 C    -1.958747     0.779300     5.768063
 H    -1.453039     1.322947     6.580647
 H    -1.644103    -0.275423     5.821888
 H    -3.041306     0.808182     5.971735
 H    -2.086334     3.176191    -0.782267
 H    -2.614905     2.557438    -2.336390
 C    -4.166706     2.564844    -0.817109
 H    -4.784182     1.733901    -1.202694
 H    -4.237879     2.505861     0.282283
 C    -4.775039     3.882795    -1.279929
 H    -4.721074     3.943086    -2.382191
 H    -4.157028     4.719256    -0.906092
 C    -6.216657     4.078982    -0.831981
 H    -6.828501     3.238002    -1.204357
 H    -6.264185     4.016053     0.269764
 C    -6.819782     5.394973    -1.295791
 H    -7.860640     5.507621    -0.956650
 H    -6.818224     5.469635    -2.395177
 H    -6.248857     6.254192    -0.908484
 H     2.516614    -0.050660     2.598389
 H     1.083228     0.957538     2.419912
 C     0.712636    -1.159130     2.340161
 C     0.017508    -1.872756     1.359148
 H     0.076554    -1.553625     0.315412
 C     0.587564    -1.579230     3.672253
 H     1.126243    -1.041012     4.457251
 C    -0.786764    -2.962516     1.689825
 H    -1.333936    -3.513878     0.924587
 C    -0.214124    -2.660858     4.022503
 H    -0.316826    -2.987180     5.059055
 C    -0.897691    -3.339913     3.019732
 F    -1.668915    -4.377016     3.345677
 H     3.690296    -1.308071     0.724372
 H     2.403024    -1.871215    -0.344271
 C     3.958756    -0.765400    -1.367956
 H     3.374677    -0.231493    -2.136754
 H     4.782182    -0.083227    -1.093232
 C     4.535484    -2.036525    -1.973636
 H     3.702924    -2.697958    -2.273639
 H     5.101257    -2.591456    -1.202921
 C     5.431545    -1.779128    -3.176666
 H     4.857462    -1.219768    -3.936392
 H     6.259423    -1.112019    -2.876675
 C     5.994710    -3.049168    -3.793272
 H     6.635562    -2.831080    -4.661013
 H     5.187965    -3.717296    -4.135081
 H     6.600657    -3.612587    -3.065329
 H     3.570741     2.021797    -0.486043
 H     2.611731     2.655493     0.834694
 C     4.387185     1.563219     1.467579
 H     4.031960     1.432397     2.503823
 H     4.912729     0.627475     1.208169
 C     5.384669     2.714296     1.433471
 H     4.862844     3.656802     1.680149
 H     5.756151     2.842132     0.400382
 C     6.565333     2.526779     2.375931
 H     6.188798     2.399664     3.406572
 H     7.078269     1.580400     2.128109
 C     7.560752     3.674801     2.332984
 H     8.401585     3.510455     3.023687
 H     7.083163     4.628105     2.611098
 H     7.980556     3.801586     1.322102
