  96
scf done:    -2657.150853
 C     0.300962     1.784483    -2.398748
 H    -0.594501     1.772609    -3.028319
 H     0.552382     2.768063    -1.994409
 C     1.323292     0.833336    -2.633830
 H     1.201984     0.102348    -3.439635
 H     2.362281     1.093941    -2.417869
 H     1.380847     1.210769    -0.166556
Rh     0.263229     0.303037    -0.817853
 C    -0.233853     2.678268     1.724945
 O    -2.423541     2.004940     0.451080
 O    -1.396291     0.248812     2.057062
 C     0.341878    -2.469169     1.412220
 O     2.360663    -2.348850    -0.250248
 O     2.234490    -0.528275     1.608805
 P     1.329587    -1.250609     0.440781
 P    -0.988034     1.263055     0.813499
 C    -0.966821    -0.813430    -1.789107
 O    -1.650979    -1.428192    -2.472884
 H    -0.992630     3.097359     2.403052
 H     0.586102     2.253954     2.324343
 C     0.274659     3.726414     0.782718
 C     1.637584     3.816345     0.477106
 H     2.343258     3.141618     0.967219
 C    -0.612866     4.594817     0.135104
 H    -1.680486     4.526570     0.354616
 C     2.108779     4.742593    -0.449637
 H     3.169371     4.818054    -0.695415
 C    -0.158347     5.526668    -0.793768
 H    -0.841767     6.207307    -1.304543
 C     1.200650     5.585752    -1.077348
 F     1.642941     6.475132    -1.966256
 C    -3.072989     1.781470    -0.792096
 H    -3.659433     2.691820    -0.995360
 H    -2.311548     1.690586    -1.584793
 C    -3.964178     0.557805    -0.783942
 H    -3.356598    -0.320454    -0.508897
 H    -4.730576     0.667479     0.001857
 C    -4.629235     0.315950    -2.131917
 H    -3.854009     0.283185    -2.916654
 H    -5.274908     1.177524    -2.378906
 C    -5.441444    -0.968333    -2.179030
 H    -4.797298    -1.851795    -2.052109
 H    -6.203576    -0.990484    -1.382828
 H    -5.963804    -1.079344    -3.141062
 C    -1.906787     0.618257     3.330294
 H    -1.719660    -0.254357     3.978651
 H    -1.324694     1.455312     3.749577
 C    -3.386395     0.951095     3.322660
 H    -3.662985     1.257925     4.347252
 H    -3.555665     1.824413     2.672239
 C    -4.270447    -0.202283     2.872456
 H    -4.102833    -1.071203     3.533771
 H    -3.950438    -0.518794     1.867874
 C    -5.747905     0.150653     2.846229
 H    -6.110568     0.446453     3.843859
 H    -5.941706     0.994699     2.164593
 H    -6.361485    -0.697666     2.506988
 H     1.032785    -3.234982     1.797036
 H    -0.096287    -1.912213     2.252238
 C    -0.739989    -3.087344     0.580395
 C    -2.072572    -2.702326     0.764584
 H    -2.304637    -1.957255     1.526206
 C    -0.446720    -4.021153    -0.421649
 H     0.589408    -4.329466    -0.579074
 C    -3.091460    -3.230433    -0.021217
 H    -4.132550    -2.935291     0.120409
 C    -1.453676    -4.548595    -1.225895
 H    -1.236844    -5.267212    -2.018134
 C    -2.765114    -4.139759    -1.017947
 F    -3.733639    -4.623980    -1.797238
 C     2.716479    -2.247318    -1.624151
 H     2.805452    -3.282501    -1.993188
 H     1.896663    -1.755170    -2.171261
 C     4.008685    -1.489598    -1.837570
 H     4.121799    -1.313082    -2.921998
 H     3.903371    -0.491479    -1.377103
 C     5.244832    -2.193185    -1.299893
 H     5.347242    -3.172825    -1.799735
 H     5.091319    -2.416941    -0.231914
 C     6.518487    -1.385797    -1.485618
 H     6.702394    -1.169577    -2.550413
 H     6.455991    -0.418644    -0.961395
 H     7.400186    -1.916842    -1.096335
 C     2.756303    -1.137347     2.778269
 H     2.790318    -0.335000     3.534268
 H     2.067369    -1.907365     3.161118
 C     4.141541    -1.719341     2.585201
 H     4.444284    -2.170221     3.547487
 H     4.089408    -2.544918     1.855349
 C     5.181358    -0.697721     2.147859
 H     5.137610     0.173816     2.825258
 H     4.905986    -0.313864     1.151829
 C     6.594462    -1.256637     2.129104
 H     6.910348    -1.575992     3.135416
 H     6.669723    -2.134757     1.468899
 H     7.321614    -0.512113     1.771901
