  60
scf done:    -2185.740479
 C    -0.789264    -4.085274    -0.697235
 H    -1.121576    -4.627852     0.192019
 H    -1.571420    -3.929082    -1.443972
 C     0.567321    -4.140876    -1.095864
 H     1.277450    -4.738339    -0.515861
 H     0.825840    -4.035124    -2.152707
 H    -0.249829    -1.802189    -1.675878
Rh     0.141617    -2.206800    -0.183805
 C    -2.011931     0.403927    -0.978201
 O    -3.017007    -1.680948     0.585702
 O    -1.546736     0.167723     1.585511
 C     2.010371     0.529463     1.000403
 O     3.291439    -0.965004    -0.762614
 O     1.381511     0.587457    -1.515596
 P     1.725896    -0.596869    -0.418654
 P    -1.624373    -0.870736     0.291554
 C     0.680097    -2.811260     1.548805
 O     1.026505    -3.209420     2.566985
 H    -1.048518     0.924795    -1.110680
 H    -2.173781    -0.177151    -1.898710
 C    -3.139029     1.358038    -0.729463
 C    -4.342623     1.236756    -1.434063
 H    -4.449703     0.445334    -2.180965
 C    -3.023376     2.390648     0.211325
 H    -2.093915     2.498665     0.772455
 C    -5.410442     2.100055    -1.201938
 H    -6.350538     2.010385    -1.749194
 C    -4.080489     3.261671     0.456529
 H    -3.999772     4.067292     1.188666
 C    -5.265631     3.102883    -0.252150
 F    -6.280852     3.934083    -0.020063
 C    -4.212512    -1.098294     1.073200
 H    -4.026017    -0.134971     1.571466
 H    -4.925578    -0.936561     0.251706
 H    -4.654337    -1.799620     1.796383
 C    -1.217696    -0.342043     2.858313
 H    -1.775311    -1.265638     3.085961
 H    -0.139311    -0.554084     2.939467
 H    -1.484727     0.424116     3.599322
 H     1.015660     0.935510     1.241758
 H     2.305156    -0.127172     1.834241
 C     3.013052     1.615342     0.765019
 C     4.374638     1.400400     1.005843
 H     4.705453     0.431771     1.386913
 C     2.613915     2.856199     0.255523
 H     1.556676     3.034243     0.046422
 C     5.315380     2.395736     0.758133
 H     6.379026     2.239030     0.946214
 C     3.541042     3.862611     0.001648
 H     3.239088     4.834845    -0.391919
 C     4.884315     3.617728     0.257586
 F     5.779145     4.577576     0.019595
 C     3.658845    -2.177448    -1.382907
 H     2.879212    -2.943133    -1.240287
 H     3.821455    -2.024295    -2.462486
 H     4.599591    -2.523016    -0.930757
 C     1.337976     0.291621    -2.890075
 H     2.348421     0.083995    -3.279789
 H     0.685445    -0.576356    -3.093644
 H     0.936137     1.173992    -3.406749
