 100
scf done:    -3109.140924
 C    -0.907662    -2.978417    -2.420794
 H    -1.371210    -3.883282    -2.015037
 H    -1.547164    -2.415103    -3.106248
 C     0.497918    -2.917726    -2.570611
 H     1.106716    -3.781607    -2.286933
 H     0.941735    -2.292649    -3.349150
 H    -0.247183    -0.549348    -1.993640
Rh    -0.087321    -1.690338    -0.891376
 C    -3.265925    -0.514427    -1.527902
 C    -3.035777    -1.393421     1.153431
 C    -1.707170     1.099023     0.459683
 C     1.780745    -0.108528     1.572505
 C     3.422184    -1.240133    -0.511563
 C     1.977163     1.188682    -1.062557
 P     1.774732    -0.448526    -0.269544
 P    -2.001034    -0.602931    -0.155881
 C     0.211875    -3.002506     0.455620
 O     0.465115    -3.753559     1.289921
 H    -2.763174     0.006494    -2.351078
 H    -3.362238    -1.572375    -1.813155
 C    -4.604778     0.068397    -1.211286
 C    -5.646633    -0.754858    -0.766624
 H    -5.479760    -1.831460    -0.679655
 C    -4.847147     1.444064    -1.316445
 H    -4.046114     2.096331    -1.666483
 C    -6.887124    -0.227813    -0.415889
 H    -7.700677    -0.864332    -0.063103
 C    -6.082006     1.987426    -0.976220
 H    -6.278711     3.058378    -1.054971
 C    -7.086396     1.142000    -0.521152
 F    -8.268233     1.659345    -0.172564
 C    -2.907400    -2.777174     1.298701
 H    -2.163804    -3.288155     0.684725
 C    -4.033692    -0.737551     1.915285
 O    -4.195809     0.578156     1.718487
 C    -5.136416     1.295136     2.465389
 H    -6.160692     0.923005     2.296087
 H    -5.076094     2.333036     2.115921
 H    -4.909011     1.262595     3.545445
 C    -3.700023    -3.510128     2.179671
 H    -3.569001    -4.590395     2.264962
 C    -4.811394    -1.465952     2.824217
 H    -5.568224    -0.959307     3.422859
 C    -4.644235    -2.842723     2.951653
 H    -5.267652    -3.393046     3.660794
 C    -1.494746     1.309319     1.825718
 H    -1.588156     0.460746     2.508675
 C    -1.539016     2.190529    -0.412870
 O    -1.661753     1.938208    -1.732343
 C    -1.270434     2.908256    -2.667866
 H    -1.940179     3.786367    -2.652572
 H    -1.338314     2.429904    -3.652992
 H    -0.232337     3.232819    -2.495968
 C    -1.177004     2.566522     2.333852
 H    -1.019527     2.698993     3.406331
 C    -1.263018     3.465266     0.094879
 H    -1.157393     4.311502    -0.583665
 C    -1.083773     3.650604     1.462821
 H    -0.858393     4.649252     1.844874
 H     0.940497     0.579321     1.748157
 H     1.462557    -1.079436     1.981338
 C     3.032687     0.346523     2.255105
 C     4.048012    -0.574953     2.546827
 H     3.910537    -1.626450     2.284494
 C     3.229316     1.680740     2.631573
 H     2.441168     2.414730     2.452820
 C     5.235594    -0.177416     3.153997
 H     6.030849    -0.891771     3.374332
 C     4.408874     2.096689     3.243646
 H     4.565780     3.135896     3.538561
 C     5.405084     1.160301     3.486712
 F     6.546831     1.553238     4.057538
 C     3.466201    -2.621687    -0.692051
 H     2.518566    -3.159534    -0.739950
 C     4.643888    -0.529584    -0.479252
 O     4.571210     0.797188    -0.293842
 C     5.736809     1.563569    -0.198379
 H     6.375325     1.230653     0.637260
 H     5.409505     2.593185    -0.008028
 H     6.319920     1.537948    -1.135809
 C     4.672324    -3.310068    -0.823608
 H     4.673099    -4.393733    -0.955937
 C     5.855730    -1.212364    -0.629101
 H     6.799031    -0.666605    -0.603608
 C     5.865019    -2.596585    -0.795008
 H     6.821272    -3.114692    -0.903344
 C     1.754692     2.389276    -0.399288
 H     1.391286     2.378284     0.626912
 C     2.395645     1.231777    -2.410269
 O     2.572410     0.038906    -3.003853
 C     3.063415    -0.026221    -4.311005
 H     2.379414     0.457747    -5.030055
 H     3.145082    -1.091890    -4.558625
 H     4.061032     0.439476    -4.394642
 C     1.988037     3.619131    -1.020225
 H     1.813513     4.546068    -0.470069
 C     2.627944     2.456581    -3.039961
 H     2.968109     2.490141    -4.075266
 C     2.436591     3.647727    -2.334926
 H     2.633339     4.601092    -2.831610
