 106
scf done:    -2989.471863
 C     1.356709    -3.683880     0.313951
 H     2.114843    -3.993053    -0.410696
 H     1.697399    -3.685397     1.351737
 C    -0.012698    -3.812519     0.021239
 H    -0.336572    -4.230399    -0.935890
 H    -0.741693    -3.914660     0.828724
 H     0.253902    -1.633380     1.372972
Rh     0.539165    -1.715534    -0.191009
 C     1.857847     0.997403     1.763184
 O     3.552753    -0.811469     0.967729
 O     2.586748     0.730621    -0.908098
 C    -1.852677     0.360324    -1.780227
 O    -2.702173    -1.898688    -0.421240
 O    -1.994780     0.272388     0.835641
 P    -1.491800    -0.768025    -0.370766
 P     2.102271    -0.205800     0.376913
 C     1.001786    -1.846934    -2.048777
 O     1.319821    -1.926828    -3.146206
 H     0.996428     0.597916     2.321838
 H     2.744523     0.912488     2.406197
 C     1.627648     2.422684     1.353650
 C     2.558657     3.408016     1.699096
 H     3.441158     3.133243     2.281521
 C     0.512369     2.788284     0.592789
 H    -0.220743     2.022480     0.326991
 C     2.381160     4.721503     1.280034
 H     3.121810     5.480232     1.542573
 C     0.323151     4.104285     0.154320
 C    -0.877079     4.479202    -0.666468
 H    -1.775146     4.585324    -0.035496
 H    -0.724955     5.437799    -1.182250
 H    -1.109787     3.717963    -1.425393
 C     1.274451     5.066245     0.508270
 H     1.148157     6.097420     0.167307
 C     4.167173    -1.896705     0.403301
 C     4.293220    -2.025875    -0.978233
 H     3.904745    -1.240368    -1.629316
 C     4.678126    -2.872464     1.259373
 H     4.563556    -2.744730     2.337047
 C     4.903173    -3.157491    -1.532659
 C     5.012858    -3.288323    -3.024030
 H     4.042265    -3.103514    -3.509467
 H     5.723268    -2.551755    -3.433227
 H     5.360469    -4.288704    -3.317040
 C     5.298801    -3.989716     0.712513
 H     5.695742    -4.764037     1.373430
 C     5.401664    -4.139426    -0.671288
 H     5.877898    -5.030247    -1.088525
 C     3.478007     1.773061    -0.939803
 C     4.697126     1.742419    -0.265323
 H     4.958774     0.871054     0.334909
 C     3.126056     2.871586    -1.725476
 H     2.165996     2.864901    -2.242759
 C     5.572232     2.833031    -0.341763
 C     6.867232     2.803241     0.417894
 H     6.691328     2.896701     1.502415
 H     7.402107     1.854384     0.259916
 H     7.531518     3.625159     0.116417
 C     3.995547     3.950986    -1.804723
 H     3.721171     4.819818    -2.407708
 C     5.208445     3.938161    -1.115031
 H     5.883510     4.795059    -1.182949
 H    -1.029007     1.092322    -1.726182
 H    -1.650279    -0.255724    -2.670819
 C    -3.192291     1.031331    -1.875504
 C    -4.108528     0.646015    -2.860484
 H    -3.845245    -0.146495    -3.564856
 C    -3.555760     2.040869    -0.980116
 H    -2.855240     2.330778    -0.196205
 C    -5.359773     1.248484    -2.928626
 H    -6.073552     0.930644    -3.691914
 C    -4.807546     2.660853    -1.037670
 C    -5.160776     3.734422    -0.048677
 H    -5.030905     3.379700     0.986078
 H    -4.512772     4.617743    -0.170142
 H    -6.202021     4.066588    -0.165401
 C    -5.707916     2.251197    -2.025306
 H    -6.694061     2.720041    -2.085109
 C    -4.050295    -1.745011    -0.635595
 C    -4.834790    -0.917146     0.164360
 H    -4.368119    -0.340649     0.962998
 C    -4.622929    -2.505310    -1.654149
 H    -3.984278    -3.160451    -2.249193
 C    -6.207884    -0.804900    -0.072388
 C    -7.036922     0.136054     0.750781
 H    -6.679592     0.184376     1.789752
 H    -6.977883     1.155872     0.335834
 H    -8.095742    -0.159375     0.761697
 C    -5.992066    -2.407116    -1.881422
 H    -6.451304    -2.999754    -2.676419
 C    -6.778171    -1.559283    -1.104211
 H    -7.851763    -1.484445    -1.295055
 C    -1.882380     0.026010     2.174723
 C    -2.079173    -1.246419     2.709522
 H    -2.321763    -2.076976     2.043668
 C    -1.589485     1.110716     3.004276
 H    -1.437583     2.097391     2.563743
 C    -1.962584    -1.460608     4.087855
 C    -2.142263    -2.843472     4.642734
 H    -3.089955    -3.289469     4.303677
 H    -1.332570    -3.509252     4.302447
 H    -2.138276    -2.842187     5.741467
 C    -1.483853     0.900081     4.375017
 H    -1.252034     1.742341     5.031238
 C    -1.663088    -0.373825     4.914609
 H    -1.571199    -0.526729     5.992768
