 100
scf done:    -3109.152515
 C     0.503641     3.892619    -0.096090
 H     1.092245     4.302029     0.730405
 H     1.017613     3.915787    -1.060066
 C    -0.910339     3.936455    -0.060930
 H    -1.417424     4.396933     0.793356
 H    -1.467793     3.989499    -0.999978
 H    -0.315921     1.744763    -1.253258
Rh    -0.225540     1.914940     0.337372
 C     1.876510    -0.137435    -1.578048
 C     3.236236     1.767662     0.130841
 C     2.160848    -0.619508     1.275962
 C    -2.641434    -0.232884     1.837688
 C    -3.520093     0.925245    -0.606639
 C    -1.536476    -1.134563    -0.706840
 P    -1.965302     0.397626     0.200869
 P     1.744572     0.705437     0.083688
 C    -0.200560     2.159571     2.224890
 O    -0.216703     2.313809     3.362955
 H     0.930776    -0.687874    -1.670466
 H     1.822457     0.682100    -2.310231
 C     3.046394    -1.036334    -1.819462
 C     4.303754    -0.533580    -2.182878
 H     4.436121     0.539721    -2.329427
 C     2.918095    -2.420123    -1.639526
 H     1.948371    -2.831732    -1.355922
 C     5.400512    -1.376935    -2.341814
 H     6.382631    -0.990210    -2.619988
 C     4.001637    -3.278612    -1.802195
 H     3.901005    -4.356370    -1.662072
 C     5.235971    -2.742788    -2.144903
 F     6.283583    -3.555344    -2.296549
 C     4.026655     1.884398     1.284340
 H     3.808838     1.264032     2.156511
 C     3.534837     2.603626    -0.949165
 H     2.920951     2.569218    -1.852781
 C     5.085731     2.778157     1.341537
 H     5.702877     2.867667     2.237530
 C     4.600406     3.501072    -0.910484
 H     4.798497     4.129384    -1.779153
 C     5.388963     3.591924     0.242479
 O     6.439198     4.424503     0.383888
 C     6.774770     5.273025    -0.677002
 H     5.951871     5.966549    -0.925442
 H     7.643959     5.857908    -0.350343
 H     7.047661     4.707759    -1.586022
 C     1.205893    -1.005487     2.225513
 H     0.257062    -0.466833     2.255412
 C     3.390874    -1.289972     1.275626
 H     4.174781    -0.996981     0.574941
 C     1.447099    -2.036704     3.120246
 H     0.705241    -2.333729     3.864139
 C     3.650587    -2.328835     2.165901
 H     4.619111    -2.827606     2.127909
 C     2.672098    -2.717217     3.090419
 O     2.825011    -3.711369     3.983514
 C     4.031599    -4.422932     4.006040
 H     4.889556    -3.768631     4.240114
 H     3.935977    -5.178526     4.795901
 H     4.225650    -4.932214     3.045735
 H    -1.873347    -0.884459     2.280046
 H    -2.684401     0.666237     2.469707
 C    -3.978563    -0.900073     1.776436
 C    -5.144732    -0.140251     1.940434
 H    -5.061192     0.927213     2.158484
 C    -4.116062    -2.262738     1.483842
 H    -3.227682    -2.882551     1.350639
 C    -6.406880    -0.707718     1.805036
 H    -7.316340    -0.116270     1.922744
 C    -5.372188    -2.848088     1.343676
 H    -5.485521    -3.909230     1.114650
 C    -6.504450    -2.059491     1.500691
 F    -7.709900    -2.612943     1.362191
 C    -4.415209     0.027036    -1.212506
 H    -4.156256    -1.030396    -1.295952
 C    -3.902210     2.261441    -0.490063
 H    -3.210109     2.963591    -0.020958
 C    -5.640044     0.458950    -1.691702
 H    -6.342150    -0.232875    -2.160536
 C    -5.139020     2.708779    -0.955518
 H    -5.400797     3.761347    -0.845325
 C    -6.016403     1.804689    -1.563850
 O    -7.228461     2.131373    -2.050890
 C    -7.663734     3.457738    -1.945645
 H    -6.999672     4.152796    -2.489198
 H    -8.663761     3.497798    -2.395677
 H    -7.732906     3.785212    -0.893160
 C    -1.009782    -2.263637    -0.062366
 H    -0.941541    -2.302436     1.025178
 C    -1.552832    -1.134761    -2.105583
 H    -1.933524    -0.260408    -2.639658
 C    -0.531029    -3.347914    -0.782020
 H    -0.115383    -4.221097    -0.275438
 C    -1.069977    -2.214122    -2.844597
 H    -1.092204    -2.165110    -3.933336
 C    -0.549131    -3.332181    -2.182764
 O    -0.021119    -4.407780    -2.796865
 C     0.108103    -4.391450    -4.192321
 H     0.735546    -3.548640    -4.531299
 H     0.595232    -5.333424    -4.473665
 H    -0.872797    -4.334199    -4.695843
