 100
scf done:    -2859.373666
 C     0.556774    -0.205421    -4.346186
 H     1.242896     0.429522    -4.915787
 H     0.855363    -1.256838    -4.306896
 C    -0.821267     0.135976    -4.281250
 H    -1.180648     1.030071    -4.800255
 H    -1.568602    -0.659018    -4.195233
 H    -0.231426    -0.955516    -2.091363
Rh     0.104477     0.566118    -2.389239
 C     1.779982    -1.228863     0.197251
 C     3.460561    -0.300468    -1.982655
 C     2.503475     1.599626     0.028393
 C    -1.429274     2.851009    -0.326756
 C    -3.369208     1.084208    -1.635506
 C    -1.789455     0.235002     0.713773
 P    -1.627616     1.104205    -0.919703
 P     1.919984     0.146550    -1.022303
 C     0.609282     2.346292    -2.834608
 O     0.951305     3.408604    -3.110093
 H     2.678166    -1.246434     0.834477
 H     0.945548    -0.950664     0.860874
 C     1.513123    -2.597774    -0.408977
 H     0.718963    -2.511861    -1.168636
 H     2.404354    -2.955671    -0.954261
 C     1.107924    -3.632235     0.631998
 H     0.191028    -3.284300     1.139134
 H     1.882460    -3.697902     1.417837
 C     0.862023    -5.013391     0.041273
 H     0.177635    -4.916677    -0.819956
 H     1.807282    -5.404982    -0.375307
 C     0.283765    -6.004916     1.037836
 H     0.176310    -7.007483     0.596674
 H    -0.713566    -5.687377     1.380948
 H     0.926787    -6.100278     1.927652
 H     3.209808    -1.246442    -2.487219
 H     3.528249     0.459219    -2.775494
 C     4.737738    -0.393581    -1.209600
 C     5.628607     0.688952    -1.171469
 H     5.412903     1.582675    -1.763382
 C     5.069055    -1.537770    -0.468988
 H     4.410593    -2.408216    -0.497787
 C     6.791728     0.651360    -0.405535
 H     7.485854     1.493054    -0.376261
 C     6.226037    -1.594282     0.302577
 H     6.485095    -2.483820     0.879533
 C     7.072747    -0.492216     0.331210
 F     8.180508    -0.539082     1.068783
 H     3.473574     1.918569    -0.379546
 H     1.791287     2.411436    -0.170904
 C     2.616909     1.355762     1.501910
 C     1.535946     1.612907     2.354458
 H     0.619633     2.046936     1.946393
 C     3.787374     0.828156     2.064178
 H     4.648607     0.625977     1.424161
 C     1.603160     1.340005     3.718692
 H     0.762970     1.540445     4.385899
 C     3.873566     0.551141     3.425198
 H     4.784041     0.141175     3.866036
 C     2.774966     0.805154     4.237602
 F     2.849699     0.538340     5.540698
 H    -0.429869     2.868293     0.140996
 H    -1.319624     3.448668    -1.246517
 C    -2.451698     3.498073     0.592966
 H    -3.425166     3.566517     0.077983
 H    -2.622443     2.876020     1.488110
 C    -2.032753     4.893652     1.039022
 H    -1.850584     5.522390     0.148865
 H    -1.061090     4.831469     1.562462
 C    -3.051478     5.574506     1.942304
 H    -4.019608     5.634669     1.413986
 H    -3.233735     4.937327     2.826133
 C    -2.626398     6.963013     2.391491
 H    -3.382173     7.428632     3.041678
 H    -2.471733     7.631472     1.529410
 H    -1.679429     6.928466     2.953740
 H    -3.632004     2.139234    -1.813273
 H    -3.263510     0.616409    -2.623382
 C    -4.428719     0.383106    -0.838503
 C    -4.804291    -0.924880    -1.172239
 H    -4.353047    -1.403242    -2.044560
 C    -5.031824     0.971409     0.279801
 H    -4.777762     1.996055     0.556660
 C    -5.718198    -1.639531    -0.405815
 H    -5.996726    -2.664670    -0.654963
 C    -5.948928     0.272664     1.061047
 H    -6.417494     0.725608     1.936657
 C    -6.270043    -1.033251     0.714862
 F    -7.129119    -1.716176     1.471215
 H    -0.781011     0.318791     1.156091
 H    -2.454198     0.833537     1.353875
 C    -2.255813    -1.197474     0.768153
 C    -2.956198    -1.631376     1.900997
 H    -3.179848    -0.919114     2.699460
 C    -2.013270    -2.127744    -0.247576
 H    -1.486361    -1.806370    -1.148003
 C    -3.383774    -2.949385     2.033421
 H    -3.930541    -3.288391     2.914906
 C    -2.437600    -3.448710    -0.136432
 H    -2.250325    -4.175307    -0.929072
 C    -3.111006    -3.846539     1.009438
 F    -3.499485    -5.117588     1.132362
