 108
scf done:    -2167.619806
 C     1.437516     1.143625    -3.050042
 H     2.132011     1.989062    -3.085828
 H     1.855341     0.209653    -3.437570
 C     0.042554     1.389055    -3.154098
 H    -0.316975     2.416975    -3.268255
 H    -0.601200     0.637939    -3.622208
 H     0.303408    -0.632147    -1.613583
Rh     0.513091     0.873541    -1.118369
 C     1.556624    -1.720902     1.124581
 C     3.572600    -0.738680    -0.656173
 C     2.742457     0.842657     1.612643
 C    -2.419226     2.330874     0.044441
 C    -2.849960    -0.132082    -1.415058
 C    -1.859139    -0.278085     1.285320
 P    -1.640073     0.682004    -0.282264
 P     2.053575    -0.179119     0.235286
 C     0.874610     2.631028    -0.498967
 O     1.134825     3.679063    -0.101477
 H     2.444366    -2.133886     1.633118
 H     0.855791    -1.406494     1.916766
 C     0.908095    -2.781961     0.250434
 H     0.051787    -2.334709    -0.279488
 H     1.606929    -3.094407    -0.545160
 C     0.449764    -4.004509     1.032626
 H    -0.179014    -3.676996     1.881112
 H     1.321577    -4.505854     1.490992
 C    -0.329251    -5.003143     0.188217
 H    -1.184988    -4.485158    -0.280258
 H     0.304098    -5.340453    -0.651087
 C    -0.827532    -6.204095     0.974959
 H    -1.384666    -6.906427     0.336538
 H    -1.498888    -5.892987     1.791798
 H     0.008077    -6.759539     1.430546
 H     3.206428    -1.334137    -1.509063
 H     4.156546    -1.416045    -0.010946
 C     4.411954     0.426996    -1.160414
 H     3.730880     1.188940    -1.574353
 H     4.934462     0.906901    -0.312524
 C     5.445391     0.059743    -2.226688
 H     4.895340    -0.406119    -3.066237
 C     6.127638     1.315551    -2.755821
 H     5.393171     2.030335    -3.158319
 H     6.843750     1.078497    -3.558016
 H     6.684850     1.826969    -1.952825
 C     6.470209    -0.947814    -1.717945
 H     7.209773    -1.192457    -2.496263
 H     6.000346    -1.891103    -1.400783
 H     7.020970    -0.540435    -0.852730
 H     1.872612     1.163612     2.211405
 H     3.111999     1.758004     1.124384
 C     3.811778     0.224313     2.500460
 H     3.384167    -0.631349     3.049097
 H     4.627554    -0.190714     1.881016
 C     4.427528     1.192569     3.516717
 H     3.596382     1.644888     4.090352
 C     5.317553     0.436624     4.496735
 H     4.759317    -0.353123     5.023580
 H     5.745127     1.110523     5.255235
 H     6.158090    -0.045118     3.969389
 C     5.202196     2.320261     2.842976
 H     5.637583     3.002754     3.589045
 H     4.568193     2.924653     2.177364
 H     6.032003     1.915375     2.238883
 H    -1.943847     2.693887     0.973001
 H    -2.029020     2.982899    -0.754290
 C    -3.933989     2.469549     0.120653
 H    -4.381402     2.174096    -0.843480
 H    -4.353383     1.780966     0.870993
 C    -4.372147     3.890946     0.450174
 H    -3.944563     4.586702    -0.294508
 H    -3.936708     4.191550     1.420716
 C    -5.883648     4.066182     0.498320
 H    -6.313234     3.763894    -0.473340
 H    -6.305297     3.364891     1.240448
 C    -6.317662     5.484704     0.830265
 H    -7.413796     5.579507     0.857228
 H    -5.939872     6.202396     0.084361
 H    -5.932032     5.800795     1.812955
 H    -2.832577     0.458115    -2.346968
 H    -3.861032    -0.032921    -0.991184
 C    -2.523470    -1.587928    -1.708590
 H    -1.484334    -1.644160    -2.072760
 H    -2.551095    -2.173193    -0.771250
 C    -3.448829    -2.267402    -2.720309
 H    -3.418280    -1.670207    -3.651268
 C    -2.933268    -3.665493    -3.042263
 H    -1.896073    -3.636600    -3.410529
 H    -3.551918    -4.158468    -3.808141
 H    -2.947893    -4.303730    -2.142553
 C    -4.895501    -2.320792    -2.241095
 H    -5.538729    -2.835988    -2.971271
 H    -5.318393    -1.317589    -2.081035
 H    -4.968535    -2.871465    -1.287335
 H    -1.193722     0.204273     2.021058
 H    -1.386085    -1.247461     1.061550
 C    -3.251653    -0.481775     1.870690
 H    -3.574685     0.448960     2.364532
 H    -3.987991    -0.670456     1.069599
 C    -3.343882    -1.634996     2.877063
 H    -2.491779    -1.538529     3.576492
 C    -4.631493    -1.539316     3.687068
 H    -4.691353    -0.588976     4.240098
 H    -4.711307    -2.360044     4.416727
 H    -5.512672    -1.596422     3.026101
 C    -3.241482    -2.991912     2.188461
 H    -3.245791    -3.814757     2.919929
 H    -2.322474    -3.089258     1.592393
 H    -4.095553    -3.146011     1.507632
