  94
scf done:    -2832.336887
 C     1.345317    -1.218843    -3.109885
 H     1.735893    -0.381949    -3.696146
 H     2.086514    -1.980224    -2.857062
 C    -0.020552    -1.543733    -3.160069
 H    -0.705336    -0.960033    -3.781894
 H    -0.348816    -2.562559    -2.945851
 H     0.676394    -1.971329    -0.707797
Rh     0.403827    -0.503292    -1.274434
 C     2.556894    -1.073533     1.531148
 O     3.619006    -0.630466    -0.894420
 O     2.710453     1.315764     0.555265
 C    -1.926430     0.300631     1.395017
 O    -2.799470    -0.209276    -1.147288
 O    -2.016815    -2.120604     0.466470
 P    -1.540440    -0.633834    -0.138426
 P     2.248785    -0.183828    -0.044471
 C     0.003981     1.222284    -2.034475
 O    -0.284087     2.200672    -2.548638
 H     2.645869    -2.132345     1.245881
 H     3.537940    -0.738256     1.901680
 C     1.487935    -0.888734     2.564476
 C     1.395279     0.299350     3.302308
 H     2.104112     1.107008     3.109636
 C     0.564926    -1.907461     2.810771
 H     0.635072    -2.828502     2.226700
 C     0.408353     0.439721     4.272978
 H     0.341406     1.365987     4.848358
 C    -0.441415    -1.778466     3.775260
 C    -1.458635    -2.864940     3.959611
 H    -0.988190    -3.859423     3.992901
 H    -2.035165    -2.728736     4.885127
 H    -2.165687    -2.866814     3.113558
 C    -0.500414    -0.591498     4.511915
 H    -1.276281    -0.467567     5.272027
 C     4.876401    -0.758171    -0.366317
 C     5.405290    -2.041163    -0.214230
 H     4.794113    -2.899281    -0.501421
 C     5.634776     0.364372    -0.027582
 H     5.217333     1.361625    -0.169881
 C     6.693780    -2.201391     0.288888
 H     7.106012    -3.206556     0.405545
 C     6.921996     0.190948     0.477756
 H     7.515320     1.069507     0.742268
 C     7.455168    -1.086983     0.640925
 H     8.465061    -1.214442     1.036655
 C     2.722569     2.466578    -0.173611
 C     2.542670     3.663052     0.524905
 H     2.375174     3.622482     1.602752
 C     2.945894     2.481758    -1.553534
 H     3.109607     1.545285    -2.089614
 C     2.571844     4.873083    -0.161209
 H     2.431464     5.806282     0.389835
 C     2.955769     3.700990    -2.229551
 H     3.116701     3.708537    -3.310024
 C     2.768923     4.898033    -1.542785
 H     2.781269     5.848550    -2.079939
 H    -2.844105    -0.113128     1.835932
 H    -1.094424     0.068202     2.072977
 C    -2.042049     1.775909     1.154799
 C    -0.907442     2.547308     0.872350
 H     0.078026     2.077352     0.869513
 C    -3.292911     2.398231     1.174649
 H    -4.181186     1.801309     1.400707
 C    -1.040818     3.900878     0.580443
 H    -0.153035     4.486770     0.334430
 C    -3.441987     3.761691     0.899218
 C    -4.802112     4.395176     0.940547
 H    -5.157833     4.504580     1.978392
 H    -4.796432     5.395066     0.483888
 H    -5.541677     3.775730     0.410255
 C    -2.297877     4.502956     0.589382
 H    -2.393076     5.566660     0.353975
 C    -4.110406     0.020809    -0.842102
 C    -4.721560     1.104551    -1.477259
 H    -4.119473     1.722050    -2.145812
 C    -4.839870    -0.792526     0.027736
 H    -4.358787    -1.648811     0.501338
 C    -6.060082     1.384997    -1.226427
 H    -6.533834     2.234369    -1.724772
 C    -6.178865    -0.491211     0.280239
 H    -6.747211    -1.124147     0.966120
 C    -6.793972     0.594413    -0.339212
 H    -7.843480     0.820292    -0.138920
 C    -1.908621    -3.279103    -0.255839
 C    -2.493222    -3.403423    -1.517832
 H    -3.013465    -2.551462    -1.957344
 C    -1.239766    -4.358352     0.320622
 H    -0.800600    -4.239425     1.311171
 C    -2.393061    -4.613033    -2.201867
 H    -2.847508    -4.706329    -3.191051
 C    -1.150560    -5.564442    -0.370339
 H    -0.625411    -6.407572     0.084808
 C    -1.722495    -5.696186    -1.635191
 H    -1.648189    -6.641578    -2.176763
