  96
scf done:    -3205.252720
 C    -0.714887    -4.401574    -1.013268
 H    -1.246626    -4.983051    -0.252904
 H    -1.259711    -4.298329    -1.955889
 C     0.706810    -4.401225    -1.022803
 H     1.251244    -4.981392    -0.270826
 H     1.236362    -4.298518    -1.974824
 H    -0.001129    -2.107796    -1.839640
Rh     0.002028    -2.509999    -0.289748
 C    -1.859394     0.255897    -1.426196
 C    -3.448706    -2.066017    -0.416929
 C    -2.036997    -0.275697     1.507248
 C     1.896944    -0.055101     1.376172
 C     3.443140    -2.077420    -0.194904
 C     1.966259     0.100868    -1.602705
 P     1.841963    -1.106488    -0.177912
 P    -1.851531    -1.122094    -0.157918
 C     0.053140    -3.009533     1.543399
 O     0.117459    -3.269189     2.661982
 H    -1.319584     1.090467    -0.954210
 H    -1.210580    -0.141314    -2.218680
 C    -3.148022     0.730362    -2.024082
 C    -3.688102     0.068292    -3.136021
 H    -3.155360    -0.784353    -3.566332
 C    -3.831327     1.845940    -1.525356
 H    -3.421057     2.394991    -0.677941
 C    -4.886041     0.480091    -3.715646
 H    -5.310071    -0.031555    -4.581384
 C    -5.028374     2.272883    -2.092185
 H    -5.563192     3.140898    -1.702607
 C    -5.547044     1.578658    -3.178558
 F    -6.693361     1.980515    -3.724369
 H    -3.605718    -2.076783    -1.505889
 H    -3.171340    -3.091958    -0.137443
 C    -4.692701    -1.653977     0.308772
 C    -4.938451    -2.134707     1.603346
 H    -4.227298    -2.825352     2.065447
 C    -5.647682    -0.808464    -0.269794
 H    -5.495958    -0.437824    -1.283298
 C    -6.078494    -1.764666     2.313660
 H    -6.273021    -2.137806     3.320658
 C    -6.794302    -0.430817     0.422665
 H    -7.538074     0.228550    -0.028303
 C    -6.993294    -0.908150     1.712555
 F    -8.087173    -0.548156     2.381981
 H    -2.608304    -0.978748     2.131757
 H    -1.013288    -0.269878     1.905168
 C    -2.608275     1.105925     1.592107
 C    -1.770895     2.219949     1.435995
 H    -0.699227     2.070039     1.278907
 C    -3.965616     1.336210     1.848579
 H    -4.636681     0.490690     1.998445
 C    -2.266540     3.520409     1.498172
 H    -1.616362     4.389118     1.380579
 C    -4.478766     2.627851     1.919195
 H    -5.536785     2.807334     2.118329
 C    -3.623573     3.707623     1.733927
 F    -4.109275     4.945822     1.796685
 H     1.357454     0.869200     1.120020
 H     1.261248    -0.605441     2.083938
 C     3.204101     0.260449     2.035310
 C     3.760015    -0.644299     2.951116
 H     3.224571    -1.568115     3.188637
 C     3.890315     1.455403     1.788056
 H     3.468326     2.187148     1.099131
 C     4.976552    -0.385988     3.578790
 H     5.413316    -1.086194     4.292948
 C     5.105364     1.731423     2.407741
 H     5.642718     2.661678     2.215041
 C     5.639379     0.801767     3.292044
 F     6.803107     1.058626     3.886450
 H     3.631751    -2.342828     0.856390
 H     3.151531    -3.008354    -0.700753
 C     4.667901    -1.505017    -0.839700
 C     4.874028    -1.669782    -2.217177
 H     4.145791    -2.234222    -2.806430
 C     5.643156    -0.816873    -0.107055
 H     5.522493    -0.694485     0.969160
 C     5.995070    -1.141613    -2.853976
 H     6.159213    -1.268560    -3.925460
 C     6.770967    -0.284990    -0.725065
 H     7.530599     0.252126    -0.154278
 C     6.930420    -0.446952    -2.096080
 F     8.006061     0.062454    -2.694355
 H     2.507786    -0.440387    -2.392540
 H     0.929315     0.191341    -1.949567
 C     2.547777     1.463456    -1.382369
 C     1.727571     2.512173    -0.941749
 H     0.660553     2.332258    -0.785108
 C     3.897734     1.745296    -1.626213
 H     4.555215     0.956598    -1.991307
 C     2.233504     3.790730    -0.717953
 H     1.596299     4.609166    -0.378345
 C     4.420987     3.017152    -1.413394
 H     5.473372     3.236076    -1.602635
 C     3.583271     4.025683    -0.952295
 F     4.078556     5.243849    -0.743279
