  56
scf done:    -1884.995500
 C    -0.721237    -4.205252    -0.609945
 H    -1.010950    -4.766785     0.283609
 H    -1.485169    -4.186434    -1.392491
 C     0.649463    -4.117758    -0.967410
 H     1.403008    -4.610439    -0.345145
 H     0.926745    -4.033079    -2.022082
 H    -0.428174    -1.892593    -1.668402
Rh     0.002880    -2.226380    -0.159212
 C    -1.896366     0.694088    -0.595364
 C    -3.450639    -1.716233    -0.275141
 C    -2.245791    -0.521921     1.999868
 C     2.057650     0.496706     0.745726
 C     3.396101    -1.576087    -0.750126
 C     1.673877     0.217765    -2.109732
 P     1.751395    -0.784831    -0.578430
 P    -1.868514    -0.964069     0.259602
 C     0.483067    -2.589034     1.642979
 O     0.770039    -2.760781     2.743209
 H    -0.988107     1.212230    -0.249489
 H    -1.740620     0.461396    -1.660068
 C    -3.110912     1.542216    -0.388396
 C    -4.220429     1.434309    -1.238053
 H    -4.181156     0.747481    -2.087417
 C    -3.187582     2.446021     0.680071
 H    -2.331178     2.560110     1.349912
 C    -5.370552     2.190482    -1.029588
 H    -6.234967     2.112857    -1.691483
 C    -4.329118     3.210817     0.904410
 H    -4.391092     3.918898     1.732721
 C    -5.411671     3.069825     0.045265
 F    -6.507757     3.798097     0.251436
 H    -3.395691    -1.932055    -1.351830
 H    -3.561775    -2.674642     0.252136
 H    -4.319817    -1.074785    -0.064746
 H    -3.172235     0.063930     2.097186
 H    -2.341862    -1.454087     2.575643
 H    -1.404685     0.047014     2.423003
 H     1.101782     1.032332     0.858044
 H     2.199272    -0.080572     1.673198
 C     3.187399     1.449417     0.515586
 C     4.486493     1.148925     0.947453
 H     4.668138     0.222866     1.498941
 C     2.985974     2.654483    -0.171298
 H     1.979983     2.919993    -0.507091
 C     5.551596     2.010087     0.698003
 H     6.563844     1.782208     1.036769
 C     4.038533     3.528214    -0.429792
 H     3.885009     4.469649    -0.960315
 C     5.313745     3.191438     0.006734
 F     6.326939     4.021692    -0.235432
 H     3.627283    -2.127277     0.173070
 H     3.330448    -2.309156    -1.567005
 H     4.198543    -0.853546    -0.963838
 H     1.588659    -0.475648    -2.958427
 H     0.769829     0.842753    -2.096102
 H     2.561579     0.855078    -2.238548
