 114
scf done:    -2845.652081
 C     0.575183     0.933053    -2.903837
 H     1.577560     0.933881    -3.338033
 H    -0.217185     0.631893    -3.594104
 C     0.281354     1.705347    -1.778259
 H     1.033015     2.359327    -1.331155
 H    -0.741857     2.045367    -1.608306
 H     0.580686    -1.445559     0.060535
Rh     0.538940    -0.394567    -1.085571
 C    -2.372048     1.282532     0.153269
 C    -2.735111    -0.575689    -2.108863
 C    -2.656094    -1.497432     0.681029
 C     3.639638    -1.195603     0.538755
 C     3.718210     0.927311    -1.406823
 C     2.782480     1.371017     1.311395
 P     2.568499     0.188474    -0.121186
 P    -1.762873    -0.379720    -0.517633
 C     0.831468    -1.763226    -2.364009
 O     1.040359    -2.509017    -3.216089
 H    -1.453356     1.794604     0.463341
 H    -2.776925     1.831516    -0.708452
 C    -3.365825     1.294602     1.273181
 C    -4.745049     1.343471     1.038333
 H    -5.120282     1.391201     0.014971
 C    -2.919766     1.239040     2.599689
 H    -1.844188     1.199958     2.792513
 C    -5.638397     1.319757     2.106293
 H    -6.712919     1.352110     1.908920
 C    -3.801972     1.215250     3.683768
 C    -3.281284     1.180607     5.091899
 H    -3.097544     2.200056     5.470588
 H    -3.997281     0.702189     5.775685
 H    -2.328610     0.634115     5.156494
 C    -5.175498     1.250592     3.418595
 H    -5.886819     1.226348     4.248829
 H    -2.123047    -0.061705    -2.863951
 H    -2.671372    -1.652085    -2.329330
 C    -4.142173    -0.073902    -2.151390
 C    -5.221597    -0.865605    -1.741044
 H    -5.039506    -1.893214    -1.424974
 C    -4.408497     1.229252    -2.593454
 H    -3.577436     1.846750    -2.950161
 C    -6.516083    -0.353383    -1.750646
 H    -7.350278    -0.982718    -1.430792
 C    -5.700528     1.764355    -2.603507
 C    -5.940647     3.181559    -3.036207
 H    -5.191209     3.512078    -3.769781
 H    -6.937536     3.304210    -3.483705
 H    -5.881373     3.868398    -2.175248
 C    -6.756254     0.953295    -2.170236
 H    -7.776210     1.347193    -2.173770
 H    -2.302953    -1.151058     1.664181
 H    -3.717650    -1.204151     0.630786
 C    -2.553093    -3.044052     0.687551
 C    -3.319222    -3.687945    -0.424448
 H    -4.411046    -3.653384    -0.370617
 C    -1.085156    -3.453718     0.746735
 H     2.014622    -2.476093     1.195716
 C    -2.700572    -4.306673    -1.443883
 H    -3.284032    -4.753677    -2.253383
 C    -0.470127    -4.073012    -0.429576
 C     0.990834    -4.382207    -0.410099
 H     1.583702    -3.458261    -0.459817
 H     1.268820    -4.895949     0.523625
 H     1.274532    -5.009568    -1.265090
 C    -1.260334    -4.458304    -1.465198
 H    -0.802388    -4.966324    -2.317399
 H     3.873639    -1.812193    -0.347218
 H     4.584870    -0.772168     0.912380
 C     2.941095    -2.025761     1.550466
 C     3.300968    -2.279233     2.822988
 H     4.252320    -1.884721     3.202666
 C    -0.379354    -3.117299     1.820195
 H    -3.039869    -3.330563     1.636540
 C     2.512780    -3.103459     3.748728
 H     3.083427    -3.636460     4.517664
 C     0.311516    -2.537599     2.781510
 C     0.319243    -1.026226     2.897319
 H     0.127859    -0.543893     1.928012
 H    -0.476859    -0.737590     3.604215
 H     1.270514    -0.658660     3.301922
 C     1.172334    -3.275839     3.738916
 H     0.718821    -3.988711     4.435520
 H     3.546806     0.308812    -2.300288
 H     3.312149     1.926526    -1.629610
 C     5.177880     0.980425    -1.079443
 C     5.754408     2.064582    -0.408010
 H     5.146253     2.933909    -0.150975
 C     6.008423    -0.094885    -1.427982
 H     5.576999    -0.938508    -1.975408
 C     7.109477     2.055386    -0.079799
 H     7.545296     2.911630     0.440870
 C     7.366492    -0.124124    -1.106271
 C     8.224894    -1.299031    -1.476019
 H     7.695125    -1.992125    -2.144252
 H     9.148642    -0.977229    -1.980985
 H     8.527074    -1.864717    -0.579550
 C     7.909411     0.969607    -0.418757
 H     8.971558     0.971851    -0.158738
 H     2.537392     0.772015     2.200780
 H     3.851112     1.630886     1.377335
 C     1.915079     2.587838     1.243063
 C     0.657137     2.595819     1.854606
 H     0.337255     1.719686     2.421206
 C     2.312712     3.730197     0.538043
 H     3.298869     3.752842     0.067443
 C    -0.175045     3.707387     1.751237
 H    -1.153604     3.699749     2.238437
 C     1.486951     4.851410     0.409150
 C     1.926384     6.037220    -0.399820
 H     1.597232     5.939371    -1.448084
 H     1.499658     6.972931    -0.010469
 H     3.021439     6.137421    -0.409697
 C     0.231079     4.824461     1.025701
 H    -0.429684     5.691820     0.944828
