 108
scf done:    -2665.834437
 C    -1.238406    -2.260726    -2.549334
 H    -1.689591    -3.171996    -2.144537
 H    -1.943712    -1.617579    -3.085747
 C     0.122482    -2.267983    -2.937696
 H     0.706663    -3.185606    -2.817878
 H     0.456783    -1.626891    -3.757235
 H    -0.328290     0.075326    -2.070262
Rh    -0.092188    -1.158751    -1.088526
 C    -2.850493     0.854250    -1.256863
 C    -3.362733    -1.578409     0.256652
 C    -2.002317     0.684497     1.528373
 C     2.121689     0.055074     1.330179
 C     3.469352    -0.614579    -1.183611
 C     1.688998     1.828349    -1.035504
 P     1.838816     0.034359    -0.538963
 P    -2.014809    -0.307265    -0.049063
 C     0.425152    -2.580291     0.060610
 O     0.866119    -3.377476     0.766129
 H    -2.176049     1.720049    -1.336657
 H    -2.769818     0.327121    -2.217759
 C    -4.263854     1.266939    -0.995872
 C    -5.323879     0.578521    -1.601819
 H    -5.104595    -0.226778    -2.307780
 C    -4.579280     2.315492    -0.120457
 H    -3.776052     2.889767     0.346550
 C    -6.650815     0.888718    -1.318208
 H    -7.477957     0.350039    -1.783992
 C    -5.900163     2.641451     0.175055
 H    -6.150266     3.454532     0.858943
 C    -6.922995     1.913949    -0.421165
 F    -8.189470     2.216796    -0.138954
 H    -3.792895    -1.693663    -0.756791
 C    -4.497693    -1.164802     1.201188
 H    -4.903467    -0.179370     0.938804
 H    -4.101884    -1.078923     2.227728
 C    -5.617655    -2.201289     1.196507
 H    -6.419479    -1.887142     1.884421
 H    -6.070373    -2.234086     0.188844
 C    -5.101354    -3.585026     1.570121
 H    -5.912875    -4.329045     1.518509
 H    -4.760139    -3.570108     2.621357
 C    -3.939546    -3.997693     0.674548
 H    -4.308410    -4.135257    -0.358465
 H    -3.534567    -4.972893     0.990187
 C    -2.827566    -2.953597     0.662542
 H    -2.366454    -2.894041     1.664253
 H    -2.027882    -3.258139    -0.024917
 H    -3.050902     0.948518     1.752555
 C    -1.201411     1.977832     1.388057
 H    -1.607488     2.609885     0.583034
 H    -0.176727     1.721300     1.078364
 C    -1.155634     2.768495     2.691535
 H    -0.544993     3.676739     2.557432
 H    -2.175224     3.113892     2.941983
 C    -0.616359     1.924616     3.840336
 H    -0.633083     2.498829     4.780610
 H     0.444150     1.679907     3.648310
 C    -1.408392     0.631642     3.989650
 H    -2.440397     0.872411     4.303111
 H    -0.979045     0.006927     4.789444
 C    -1.454460    -0.156045     2.684113
 H    -0.440857    -0.500116     2.419289
 H    -2.057217    -1.066430     2.818490
 H     1.580961     0.933143     1.707974
 H     1.554612    -0.818755     1.676802
 C     3.501680    -0.008249     1.910626
 C     4.156124    -1.243688     2.020042
 H     3.635709    -2.154789     1.711989
 C     4.172920     1.130966     2.373006
 H     3.679988     2.104147     2.327451
 C     5.450926    -1.338556     2.521758
 H     5.964179    -2.298352     2.603587
 C     5.466045     1.055465     2.883397
 H     5.992727     1.941813     3.241532
 C     6.096334    -0.181222     2.938936
 F     7.336902    -0.261125     3.418226
 H     3.649258    -1.461959    -0.495000
 C     4.683901     0.313470    -1.093160
 H     4.781358     0.749384    -0.090861
 H     4.549466     1.154223    -1.794649
 C     5.965260    -0.432214    -1.457628
 H     6.826528     0.253068    -1.397542
 H     6.143896    -1.220036    -0.703776
 C     5.874567    -1.060635    -2.842558
 H     6.791263    -1.628697    -3.070395
 H     5.810464    -0.257727    -3.599680
 C     4.646418    -1.955581    -2.959726
 H     4.766598    -2.825957    -2.288908
 H     4.560009    -2.362362    -3.980496
 C     3.365252    -1.217569    -2.585023
 H     3.172445    -0.418623    -3.321493
 H     2.499429    -1.889088    -2.626712
 H     0.625435     2.013113    -0.805065
 C     1.828809     2.004090    -2.549710
 H     1.211305     1.252236    -3.065746
 H     2.874448     1.825250    -2.851237
 C     1.424409     3.411997    -2.973243
 H     1.553999     3.530223    -4.061206
 H     0.346813     3.552787    -2.771486
 C     2.223013     4.470195    -2.221384
 H     1.896393     5.481874    -2.511858
 H     3.287182     4.392736    -2.509779
 C     2.100046     4.285566    -0.713609
 H     1.052545     4.468386    -0.410834
 H     2.711427     5.032258    -0.181103
 C     2.500384     2.877273    -0.277166
 H     3.578647     2.729336    -0.447247
 H     2.335996     2.777170     0.806169
