  84
scf done:    -3048.122726
 C    -0.609773    -3.798230    -1.353091
 H    -1.106286    -4.517739    -0.694449
 H    -1.177240    -3.545299    -2.253727
 C     0.807233    -3.757496    -1.394140
 H     1.375974    -4.455457    -0.770741
 H     1.315934    -3.465109    -2.316801
 H     0.041027    -1.383501    -1.774139
Rh     0.087695    -2.037558    -0.320335
 C    -2.248578     0.211832    -1.500745
 C    -3.351798    -1.520570     0.539622
 C    -1.644849     0.573196     1.393520
 C     2.450318    -0.117577     1.575997
 C     3.372925    -0.854527    -1.010981
 C     1.328161     1.140568    -0.818663
 P     1.800717    -0.496148    -0.141891
 P    -1.784797    -0.690174     0.065922
 C     0.233795    -2.890632     1.378657
 O     0.364652    -3.412105     2.393536
 H    -1.345269     0.783150    -1.762952
 H    -2.291021    -0.618498    -2.223782
 C    -3.476102     1.069064    -1.602922
 C    -4.766374     0.530222    -1.498367
 H    -4.896559    -0.541371    -1.340007
 C    -3.356814     2.444190    -1.851700
 H    -2.364987     2.887039    -1.968310
 C    -5.896107     1.337298    -1.597938
 H    -6.901577     0.921322    -1.512646
 C    -4.476510     3.265351    -1.956293
 H    -4.383920     4.335315    -2.150807
 C    -5.737538     2.699734    -1.818104
 F    -6.815602     3.476462    -1.910780
 C    -4.256471    -0.979228     1.460845
 H    -4.022392    -0.045047     1.974469
 C    -3.678179    -2.723903    -0.099979
 H    -2.964861    -3.164388    -0.798408
 C    -5.466462    -1.614084     1.729657
 H    -6.180007    -1.204017     2.446580
 C    -4.890043    -3.360406     0.146981
 H    -5.157994    -4.295769    -0.347650
 C    -5.771124    -2.793688     1.062267
 F    -6.928459    -3.400377     1.309673
 C    -0.945889     0.208409     2.552746
 H    -0.523220    -0.794652     2.633318
 C    -2.189078     1.862083     1.325606
 H    -2.760688     2.172268     0.452280
 C    -0.767675     1.102768     3.604103
 H    -0.224171     0.822832     4.508372
 C    -2.009497     2.774043     2.363487
 H    -2.424192     3.782596     2.312119
 C    -1.294190     2.384979     3.489125
 F    -1.116606     3.251989     4.480664
 H     1.663620     0.449125     2.094739
 H     2.493722    -1.102703     2.064226
 C     3.782274     0.561111     1.634782
 C     4.954108    -0.206063     1.687872
 H     4.879850    -1.295171     1.737188
 C     3.909838     1.954081     1.567010
 H     3.017601     2.581426     1.531971
 C     6.212121     0.385296     1.656774
 H     7.125862    -0.210354     1.690862
 C     5.161556     2.564131     1.534305
 H     5.267093     3.649203     1.481965
 C     6.299880     1.769359     1.572742
 F     7.500033     2.346574     1.535296
 C     4.225924     0.153188    -1.481967
 H     3.924233     1.200549    -1.419243
 C     3.798606    -2.185351    -1.073920
 H     3.132855    -2.969989    -0.708913
 C     5.472444    -0.159962    -2.012278
 H     6.148844     0.613848    -2.379310
 C     5.049743    -2.512901    -1.590363
 H     5.395462    -3.546664    -1.645546
 C     5.869595    -1.492021    -2.055128
 F     7.064443    -1.795524    -2.554624
 C     1.289156     1.301460    -2.213102
 H     1.648923     0.497493    -2.859901
 C     0.829997     2.171956    -0.016521
 H     0.807044     2.071702     1.069496
 C     0.778401     2.458072    -2.790794
 H     0.737504     2.587784    -3.873652
 C     0.311296     3.336631    -0.580158
 H    -0.092727     4.136851     0.042000
 C     0.290634     3.462391    -1.960889
 F    -0.240525     4.556027    -2.506961
