  68
scf done:    -2042.116237
 C     0.420422     0.115264    -2.571818
 H     0.380650     1.014539    -3.194103
 H     1.336732    -0.471193    -2.684302
 C    -0.783479    -0.527973    -2.198196
 H    -1.745741    -0.120948    -2.522286
 H    -0.789870    -1.609377    -2.032963
 H     0.838211    -0.818307    -0.246696
Rh     0.014577     0.525031    -0.483256
 C     3.189993     0.480281     1.217808
 C     3.012983     2.249349    -1.028327
 C     1.710747     2.921231     1.468915
 C    -2.879938     0.406175     1.636192
 C    -1.707143    -2.137448     1.048341
 C    -0.409695    -0.334674     2.908752
 P    -1.223121    -0.365198     1.242092
 P     1.946173     1.511659     0.287549
 C    -0.898173     2.169094    -0.721450
 O    -1.421173     3.191690    -0.819895
 H     4.036129     1.132022     1.486162
 H     2.693250     0.183266     2.154173
 C     3.675589    -0.724093     0.471961
 C     3.044959    -1.964710     0.623139
 H     2.212309    -2.060099     1.321348
 C     4.751639    -0.637986    -0.420308
 H     5.275488     0.313078    -0.544037
 C     3.456410    -3.081893    -0.096978
 H     2.965297    -4.049683     0.019125
 C     5.177045    -1.743815    -1.152168
 H     6.015787    -1.682373    -1.847783
 C     4.516987    -2.954491    -0.984772
 F     4.918138    -4.018004    -1.680571
 H     3.267362     1.412609    -1.698073
 C     2.324621     3.356181    -1.809836
 H     2.081059     4.221714    -1.174042
 H     1.385933     2.993503    -2.253158
 H     3.956931     2.605972    -0.581246
 H     2.967618     3.717631    -2.626637
 H     1.205138     2.477841     2.343146
 C     2.926434     3.730893     1.889882
 H     3.414098     4.214124     1.029734
 H     3.682595     3.114907     2.399696
 H     0.954302     3.568964     0.996473
 H     2.636946     4.530400     2.589543
 H    -3.192513     0.077685     2.639325
 H    -2.704011     1.492013     1.679659
 C    -3.946538     0.068975     0.636793
 C    -4.064112     0.765889    -0.572737
 H    -3.403833     1.608934    -0.776106
 C    -4.833725    -0.988687     0.875004
 H    -4.773424    -1.539462     1.817432
 C    -5.020329     0.412163    -1.520685
 H    -5.116239     0.954678    -2.462873
 C    -5.796801    -1.356197    -0.060863
 H    -6.490938    -2.178142     0.122951
 C    -5.873331    -0.651284    -1.255109
 F    -6.791142    -0.995554    -2.158210
 H    -2.318101    -2.169933     0.132604
 C    -0.541348    -3.104308     0.938960
 H     0.064068    -3.125791     1.859610
 H     0.122877    -2.823640     0.108199
 H    -2.374760    -2.418451     1.880011
 H    -0.901629    -4.129123     0.761245
 H    -0.308336     0.736212     3.154287
 C    -1.054311    -1.101737     4.051690
 H    -1.087615    -2.182897     3.850281
 H    -2.084855    -0.769064     4.249010
 H     0.617347    -0.692312     2.730245
 H    -0.487049    -0.961287     4.984978
