  80
scf done:    -2199.245419
 C     1.521597     2.397533     1.699811
 H     1.575146     3.363968     1.188594
 H     0.958585     2.420200     2.637188
 C     2.576527     1.465530     1.531107
 H     3.426140     1.711386     0.888624
 H     2.816127     0.769295     2.340098
 H     0.463624     0.086477     1.784905
Rh     0.860078     0.796813     0.407694
 C    -2.313573    -0.320370     1.281544
 C    -2.201141     2.516341     0.755953
 C    -2.145475     0.663288    -1.481951
 C     2.917538    -1.488192    -1.402650
 C     1.972541    -2.467177     1.129159
 C     0.199523    -2.322922    -1.153568
 P     1.469139    -1.332262    -0.237078
 P    -1.434806     0.931082     0.211150
 C     1.234433     1.691040    -1.221924
 O     1.395929     2.224303    -2.230191
 H    -1.741188    -1.251400     1.163883
 H    -2.128101     0.020879     2.311897
 C    -3.766300    -0.549014     1.017444
 C    -4.752671     0.259501     1.598271
 H    -4.461103     1.034075     2.311804
 C    -4.177367    -1.554324     0.131589
 H    -3.429293    -2.213523    -0.317358
 C    -6.098839     0.100398     1.280834
 H    -6.871259     0.728852     1.727782
 C    -5.518252    -1.728064    -0.198849
 H    -5.842689    -2.506320    -0.891906
 C    -6.464677    -0.888060     0.375116
 F    -7.750355    -1.043870     0.063114
 H    -3.297204     2.466473     0.643421
 H    -1.983921     2.593956     1.835158
 C    -1.633724     3.729084     0.029525
 H    -1.803412     3.627434    -1.056468
 H    -0.540302     3.733612     0.162460
 C    -2.228766     5.040401     0.517323
 H    -3.320188     5.069426     0.367493
 H    -2.038890     5.185965     1.592879
 H    -1.796003     5.900367    -0.015986
 H    -1.398668     1.071974    -2.182820
 H    -2.119706    -0.429003    -1.638202
 C    -3.527292     1.214792    -1.817910
 H    -3.499215     2.316225    -1.782816
 H    -4.261527     0.905220    -1.059785
 C    -4.001854     0.762678    -3.190345
 H    -3.294581     1.062072    -3.980623
 H    -4.100286    -0.334205    -3.231233
 H    -4.983944     1.193031    -3.438418
 H     3.147395    -2.557356    -1.537095
 H     2.558309    -1.102317    -2.369683
 C     4.136948    -0.735870    -0.963151
 C     4.414554     0.540380    -1.466884
 H     3.752567     0.980759    -2.214988
 C     5.015550    -1.275665    -0.015375
 H     4.835991    -2.279072     0.378331
 C     5.518916     1.266959    -1.030667
 H     5.737374     2.262781    -1.420200
 C     6.122914    -0.562484     0.435846
 H     6.809971    -0.977901     1.175147
 C     6.357839     0.707269    -0.075692
 F     7.416224     1.396427     0.349844
 H     2.427694    -3.377215     0.700298
 H     2.768195    -1.932658     1.673657
 C     0.848450    -2.832103     2.088333
 H     0.060908    -3.386682     1.548209
 H     0.379435    -1.900818     2.446863
 C     1.329211    -3.659565     3.270266
 H     1.789358    -4.605306     2.941296
 H     2.084160    -3.110932     3.855528
 H     0.499846    -3.910867     3.948748
 H    -0.712771    -2.272003    -0.535341
 H    -0.029313    -1.729560    -2.055842
 C     0.499865    -3.769334    -1.521434
 H     0.757633    -4.339651    -0.613241
 H     1.389714    -3.815289    -2.170884
 C    -0.672093    -4.440998    -2.222642
 H    -1.568159    -4.447430    -1.580691
 H    -0.937012    -3.912339    -3.152242
 H    -0.444494    -5.485211    -2.485328
