  96
scf done:    -2808.477462
 C    -1.144585    -3.331280    -1.567920
 H    -1.632693    -4.017233    -0.867800
 H    -1.798897    -2.972364    -2.367962
 C     0.244016    -3.452082    -1.811774
 H     0.814658    -4.227164    -1.291005
 H     0.650672    -3.189876    -2.792216
 H    -0.324816    -0.947815    -1.988024
Rh    -0.124010    -1.699463    -0.591225
 C    -3.207369    -0.392518    -1.413941
 C    -3.037725    -0.934551     1.366922
 C    -1.505396     1.364509     0.405846
 C     1.995580     0.251840     1.315013
 C     3.457115    -1.359441    -0.595073
 C     2.022129     0.971327    -1.572850
 P     1.857910    -0.441535    -0.420123
 P    -1.951488    -0.364537    -0.021989
 C     0.185234    -2.556653     1.078907
 O     0.424533    -3.042209     2.092586
 H    -2.721517     0.044581    -2.293750
 H    -3.265651    -1.473660    -1.606764
 C    -4.580827     0.156916    -1.185670
 C    -5.568399    -0.646522    -0.598213
 H    -5.325989    -1.673862    -0.315943
 C    -4.927321     1.466875    -1.540535
 H    -4.184521     2.117798    -2.004946
 C    -6.849949    -0.161537    -0.356370
 H    -7.618581    -0.784449     0.104300
 C    -6.204978     1.969066    -1.310240
 H    -6.477531     2.989044    -1.586617
 C    -7.151692     1.146800    -0.712687
 F    -8.376688     1.620322    -0.484064
 C    -2.951884    -2.311485     1.627146
 H    -2.230895    -2.898621     1.057027
 C    -4.007122    -0.169437     2.060110
 C    -4.289392     1.291436     1.851088
 H    -3.892040     1.680629     0.910926
 H    -3.856600     1.897153     2.663076
 H    -5.376431     1.459042     1.853646
 C    -3.762398    -2.941337     2.563645
 H    -3.665171    -4.015474     2.735668
 C    -4.796306    -0.823171     3.018969
 H    -5.540446    -0.233254     3.561572
 C    -4.685419    -2.183236     3.278467
 H    -5.327233    -2.650819     4.029177
 C    -1.265075     1.619335     1.767426
 H    -1.424504     0.818110     2.494117
 C    -1.231338     2.375298    -0.540028
 C    -1.258440     2.148422    -2.023193
 H    -2.274680     2.184353    -2.442034
 H    -0.820749     1.170872    -2.277058
 H    -0.665305     2.917140    -2.535241
 C    -0.840748     2.864947     2.211954
 H    -0.664658     3.032665     3.276994
 C    -0.845262     3.637062    -0.063679
 H    -0.653913     4.427402    -0.794300
 C    -0.656930     3.894660     1.289062
 H    -0.348499     4.889021     1.620530
 H     1.157289     0.956585     1.417675
 H     1.723329    -0.622424     1.924758
 C     3.280204     0.833182     1.819237
 C     4.356458    -0.004449     2.147332
 H     4.246964    -1.086254     2.047019
 C     3.441653     2.212765     2.002983
 H     2.603050     2.886081     1.809611
 C     5.568706     0.515309     2.588801
 H     6.411367    -0.133236     2.834537
 C     4.647471     2.750608     2.446005
 H     4.778274     3.824872     2.587330
 C     5.703904     1.891925     2.719880
 F     6.865252     2.397686     3.135526
 C     3.360975    -2.739570    -0.373939
 H     2.370919    -3.163698    -0.203378
 C     4.729417    -0.789598    -0.852643
 C     4.989015     0.667601    -1.107629
 H     4.454992     1.318193    -0.405662
 H     4.674845     0.966255    -2.119466
 H     6.063186     0.877164    -1.012551
 C     4.477356    -3.569535    -0.383399
 H     4.364419    -4.640249    -0.199301
 C     5.836198    -1.650191    -0.874677
 H     6.821176    -1.218105    -1.070994
 C     5.727490    -3.017309    -0.641044
 H     6.620622    -3.646665    -0.661212
 C     1.947570     2.285545    -1.104723
 H     1.790010     2.475430    -0.045933
 C     2.193570     0.736443    -2.956847
 C     2.307149    -0.645486    -3.523807
 H     1.590269    -1.326682    -3.042713
 H     3.311710    -1.064437    -3.349473
 H     2.124950    -0.641763    -4.607385
 C     2.071593     3.370913    -1.966964
 H     2.022545     4.387458    -1.569797
 C     2.296050     1.841451    -3.809112
 H     2.426592     1.663851    -4.880146
 C     2.248708     3.148213    -3.328968
 H     2.346218     3.988546    -4.020521
