 100
scf done:    -2462.607230
 C     1.753170    -3.749071     0.834781
 H     2.510647    -4.170760     0.165836
 H     2.096769    -3.623273     1.865589
 C     0.380176    -4.013857     0.575535
 H     0.108002    -4.624926    -0.291940
 H    -0.319994    -4.094974     1.412676
 H     0.476455    -1.723004     1.618169
Rh     0.804410    -1.972461     0.076521
 C     1.426635     1.212660     1.454689
 C     3.817410    -0.273264     1.145147
 C     2.486270     0.836723    -1.213317
 C    -1.336977     0.322530    -1.543699
 C    -2.476469    -2.331779    -1.005459
 C    -2.092363    -0.337465     1.225272
 P    -1.291548    -1.052062    -0.307722
 P     2.133747    -0.098228     0.364743
 C     1.223452    -2.290191    -1.753404
 O     1.466725    -2.461673    -2.863537
 H     2.072309     2.104152     1.397141
 H     0.465445     1.498744     0.995446
 C     1.211624     0.799633     2.903014
 H     0.692909    -0.174124     2.934520
 H     2.187634     0.631649     3.390354
 C     0.422325     1.830104     3.699198
 H    -0.556120     1.995827     3.212136
 H     0.941769     2.804978     3.661649
 C     0.192238     1.430473     5.149549
 H    -0.315517     0.450067     5.174951
 H     1.168194     1.273120     5.642109
 C    -0.621149     2.448837     5.931666
 H    -0.774153     2.133388     6.974847
 H    -1.614878     2.596451     5.478850
 H    -0.120474     3.430366     5.950942
 H     3.647344    -0.926852     2.017198
 H     4.128344     0.711137     1.530522
 C     4.896828    -0.840102     0.266337
 C     6.140973    -0.201799     0.182042
 H     6.318748     0.702922     0.770626
 C     4.699731    -2.009048    -0.480677
 H     3.737097    -2.519372    -0.414810
 C     7.155146    -0.706078    -0.630651
 H     8.117981    -0.191310    -0.678108
 C     5.709891    -2.510933    -1.298041
 H     5.531032    -3.420741    -1.876423
 C     6.941050    -1.861539    -1.379468
 H     7.732066    -2.256665    -2.021204
 H     1.562607     0.748323    -1.802084
 H     3.253140     0.239951    -1.732470
 C     2.888715     2.271075    -1.079429
 C     4.225644     2.639748    -0.885998
 H     4.996039     1.865464    -0.886709
 C     1.919186     3.283259    -1.110475
 H     0.871891     3.016244    -1.280475
 C     4.579671     3.975932    -0.708434
 H     5.629595     4.242246    -0.562693
 C     2.270148     4.619153    -0.933829
 H     1.497701     5.391610    -0.963715
 C     3.603448     4.970981    -0.725708
 H     3.881381     6.018430    -0.587422
 H    -0.858671     1.171412    -1.025763
 H    -0.623070     0.022767    -2.329149
 C    -2.654706     0.764335    -2.166620
 H    -2.979277     0.011427    -2.904805
 H    -3.447285     0.810238    -1.405740
 C    -2.549667     2.121283    -2.848213
 H    -1.778913     2.085920    -3.640140
 H    -2.192060     2.860889    -2.108759
 C    -3.869120     2.604732    -3.432030
 H    -4.231661     1.868805    -4.171815
 H    -4.624975     2.620869    -2.627056
 C    -3.776508     3.977783    -4.077033
 H    -4.744801     4.301255    -4.488201
 H    -3.045679     3.985391    -4.901767
 H    -3.454811     4.738331    -3.347138
 H    -1.994365    -3.284776    -0.749159
 H    -2.403247    -2.227925    -2.099241
 C    -3.903567    -2.354195    -0.552833
 C    -4.934633    -1.770935    -1.298946
 H    -4.702311    -1.281089    -2.246299
 C    -4.238811    -2.996134     0.648509
 H    -3.452014    -3.485927     1.229758
 C    -6.252811    -1.805973    -0.850123
 H    -7.039948    -1.342805    -1.449989
 C    -5.555273    -3.029078     1.103431
 H    -5.791819    -3.533604     2.043321
 C    -6.568890    -2.427943     0.357064
 H    -7.602331    -2.454151     0.710157
 H    -1.231382    -0.022717     1.829776
 H    -2.539633    -1.193311     1.752180
 C    -3.068358     0.791681     1.082280
 C    -4.451524     0.573901     1.084322
 H    -4.837099    -0.435426     1.234188
 C    -2.607273     2.106850     0.924152
 H    -1.533914     2.310064     0.957756
 C    -5.340571     1.626772     0.881501
 H    -6.414902     1.427285     0.875755
 C    -3.493482     3.161496     0.719726
 H    -3.108297     4.176009     0.591088
 C    -4.866893     2.923278     0.683848
 H    -5.564828     3.747473     0.519033
