  88
scf done:    -4790.023917
 C     0.911196    -4.054029     0.604961
 H     1.688727    -4.445678    -0.056979
 H     1.203429    -3.990880     1.656324
 C    -0.452467    -4.196498     0.264060
 H    -0.731811    -4.706599    -0.662172
 H    -1.212960    -4.235153     1.047938
 H    -0.276751    -1.939883     1.427859
Rh     0.155167    -2.141654    -0.089634
 C     1.460651     0.321447     2.033541
 O     3.278282    -0.938559     0.591661
 O     1.685007     0.646421    -0.729298
 C    -1.765215     0.005795    -2.106524
 O    -3.171934    -1.434374    -0.392282
 O    -1.667597     0.414713     0.639716
 P    -1.619701    -0.826384    -0.473640
 P     1.659412    -0.553674     0.432841
 C     0.644541    -2.473974    -1.921314
 O     0.910882    -2.677050    -3.014965
 H     0.423222     0.688863     1.997573
 H     1.462154    -0.511552     2.755830
 C     2.433390     1.394433     2.422949
 C     3.740416     1.076292     2.812972
 H     4.051207     0.030779     2.845408
 C     2.057994     2.742556     2.397046
 H     1.037912     3.012274     2.115471
 C     4.657130     2.073278     3.131168
 H     5.679665     1.835930     3.430256
 C     2.962893     3.752626     2.706274
 H     2.684325     4.806691     2.663285
 C     4.258982     3.402823     3.062593
 F     5.137772     4.361235     3.348861
 C     3.863148    -1.869861    -0.224364
 C     4.471042    -2.977880     0.363590
 H     4.445103    -3.083321     1.449412
 C     3.869142    -1.715149    -1.610664
 H     3.389103    -0.844907    -2.061846
 C     5.087798    -3.935908    -0.433482
 H     5.565013    -4.809300     0.013504
 C     4.476392    -2.677891    -2.412210
 H     4.476683    -2.574177    -3.498089
 C     5.083312    -3.783918    -1.820648
Cl     5.838792    -4.983252    -2.815498
 C     2.315473     1.862833    -0.710593
 C     3.679590     1.998032    -0.447338
 H     4.280805     1.117859    -0.222502
 C     1.544933     2.985209    -1.012701
 H     0.487551     2.852193    -1.247064
 C     4.252140     3.264737    -0.422518
 H     5.309932     3.387053    -0.185598
 C     2.117666     4.253055    -0.997041
 H     1.519655     5.138710    -1.217498
 C     3.468078     4.388345    -0.682213
Cl     4.175379     5.966275    -0.593721
 H    -0.813189     0.553214    -2.199658
 H    -1.702756    -0.836805    -2.815796
 C    -2.944660     0.884359    -2.403089
 C    -4.219582     0.339866    -2.601428
 H    -4.355419    -0.741557    -2.551800
 C    -2.796502     2.273956    -2.478839
 H    -1.808298     2.718677    -2.340900
 C    -5.320732     1.158198    -2.832268
 H    -6.319479     0.744177    -2.981951
 C    -3.887102     3.107360    -2.703816
 H    -3.783605     4.193016    -2.737301
 C    -5.141968     2.535670    -2.870084
 F    -6.195544     3.323662    -3.074058
 C    -3.520928    -2.389116     0.525027
 C    -4.147144    -3.545226     0.062930
 H    -4.322132    -3.661996    -1.007886
 C    -3.274401    -2.215927     1.887487
 H    -2.781913    -1.308152     2.239232
 C    -4.527035    -4.536580     0.961204
 H    -5.014303    -5.448088     0.611987
 C    -3.645736    -3.210571     2.787603
 H    -3.452780    -3.091865     3.854799
 C    -4.268767    -4.367253     2.321562
Cl    -4.729066    -5.605060     3.441995
 C    -2.462625     1.531071     0.644976
 C    -3.856025     1.455743     0.623385
 H    -4.348531     0.485303     0.572711
 C    -1.826676     2.769414     0.720125
 H    -0.736725     2.802517     0.750232
 C    -4.606129     2.626380     0.616606
 H    -5.695039     2.583519     0.567151
 C    -2.575631     3.941811     0.725795
 H    -2.086661     4.916297     0.769614
 C    -3.964801     3.864255     0.655423
Cl    -4.903232     5.317698     0.590237
