  88
scf done:    -2154.142252
 C    -0.014542    -3.263946    -1.415724
 H    -0.771209    -3.955820    -1.032861
 H    -0.067029    -3.102489    -2.495934
 C     1.230948    -3.157899    -0.746488
 H     1.416760    -3.768361     0.142479
 H     2.132396    -2.918045    -1.316587
 H     0.742513    -0.863538    -1.675599
Rh     0.054176    -1.385780    -0.343529
 C    -1.384099     0.560968    -2.874069
 O    -3.101711    -0.968965    -1.546653
 O    -2.178268     1.071423    -0.269009
 C     0.612867     1.648215     1.466660
 O     2.342632    -0.261866     1.904402
 O     2.396922     1.026667    -0.332805
 P     1.371668     0.189941     0.648025
 P    -1.681986    -0.194338    -1.211624
 C    -0.743924    -2.067321     1.255276
 O    -1.217095    -2.495808     2.208654
 H    -0.831590    -0.256335    -3.370801
 C    -2.615206     0.879788    -3.713396
 H    -2.305231     1.127047    -4.741502
 H    -3.303832     0.025530    -3.755116
 H    -3.170378     1.745541    -3.325158
 C    -0.437944     1.748617    -2.722501
 H     0.436378     1.500386    -2.102362
 H    -0.073658     2.075803    -3.708729
 H    -0.945344     2.605369    -2.252843
 C    -3.520379    -2.095174    -0.788666
 H    -4.184967    -2.672381    -1.451528
 H    -2.641749    -2.721743    -0.564155
 C    -4.241927    -1.714964     0.489302
 H    -4.370554    -2.632637     1.089777
 H    -3.585769    -1.057587     1.086097
 C    -5.594388    -1.050801     0.274311
 H    -6.251356    -1.745773    -0.278133
 H    -5.468888    -0.176033    -0.384682
 C    -6.266425    -0.628065     1.570092
 H    -6.431506    -1.490872     2.235276
 H    -5.646493     0.095861     2.122903
 H    -7.243856    -0.156600     1.387072
 C    -3.305726     1.882877    -0.566742
 H    -3.018046     2.660208    -1.297566
 H    -4.095305     1.267156    -1.025090
 C    -3.799700     2.530567     0.707437
 H    -4.782430     2.991700     0.505397
 H    -3.976635     1.734633     1.451291
 C    -2.842837     3.570462     1.272434
 H    -2.751470     4.402917     0.552220
 H     0.004318     2.101084     0.664998
 C    -3.267027     4.104338     2.629777
 H    -4.265624     4.568846     2.587574
 H    -3.313052     3.295154     3.376576
 H    -2.563352     4.862635     3.005355
 H    -1.840247     3.122253     1.345742
 C    -0.319763     1.164684     2.570864
 H    -0.768786     2.024191     3.092454
 H    -1.138275     0.555594     2.162876
 H     0.229945     0.570263     3.317040
 C     1.643716     2.650166     1.969847
 H     2.286415     3.008007     1.154421
 H     1.134559     3.518491     2.418114
 H     2.285330     2.194381     2.738516
 C     2.742348    -1.592284     2.171741
 H     2.907428    -1.638294     3.260465
 H     1.924506    -2.287921     1.920290
 C     4.003243    -1.979183     1.426477
 H     4.282119    -3.003066     1.732544
 H     3.768458    -2.043865     0.349366
 C     5.166867    -1.024157     1.649034
 H     5.423503    -1.008639     2.723009
 H     4.832252    -0.001548     1.409255
 C     6.396445    -1.374981     0.827950
 H     6.769974    -2.383595     1.068101
 H     6.172774    -1.359665    -0.251581
 H     7.218492    -0.664666     1.004419
 C     3.171269     0.422795    -1.350353
 H     3.807662    -0.370589    -0.920369
 H     2.503052    -0.057359    -2.086952
 C     4.030310     1.485316    -1.998229
 H     4.549113     1.026098    -2.858051
 H     3.369600     2.266248    -2.414128
 C     5.044351     2.114269    -1.052872
 H     5.706968     1.323259    -0.659157
 H     4.507552     2.518845    -0.179350
 C     5.876228     3.205655    -1.705221
 H     6.443787     2.818600    -2.567197
 H     5.239327     4.025815    -2.074241
 H     6.600254     3.640307    -0.999497
