  72
scf done:    -1696.197557
 C     0.810869    -2.583923     1.485519
 H     1.428550    -3.258928     0.885363
 H     1.300596    -2.228513     2.397880
 C    -0.596203    -2.720967     1.460527
 H    -1.046400    -3.491986     0.829022
 H    -1.180759    -2.485095     2.353353
 H    -0.097938    -0.219079     1.754955
Rh    -0.029391    -0.951636     0.337647
 C     2.539628     0.827234     1.814878
 C     3.463061    -1.011195    -0.289571
 C     2.147781     1.596178    -1.073335
 C    -1.686807     1.759688    -1.184211
 C    -3.317975    -0.699858    -0.977601
 C    -2.751743     0.995243     1.490543
 P    -1.991764     0.270920    -0.061772
 P     2.047095     0.159535     0.127912
 C    -0.105227    -1.715174    -1.395511
 O    -0.237373    -2.107901    -2.471434
 H     2.208797    -0.015897     2.445188
 C     4.011712     1.075760     2.125532
 H     4.109139     1.374992     3.182178
 H     4.626203     0.175445     1.989951
 H     4.448342     1.883182     1.520506
 C     1.678690     2.025921     2.197554
 H     0.612039     1.789856     2.077050
 H     1.847357     2.289675     3.253759
 H     1.912401     2.918389     1.596543
 H     3.625348    -1.505196     0.686287
 C     3.064021    -2.097315    -1.284182
 H     3.903395    -2.797689    -1.423900
 H     2.196095    -2.668951    -0.937861
 H     2.818004    -1.678724    -2.271280
 C     4.780102    -0.382596    -0.742473
 H     5.134065     0.425455    -0.093054
 H     5.565206    -1.156089    -0.767818
 H     4.695333     0.016443    -1.764130
 H     1.233013     2.140067    -0.796622
 C     3.300516     2.591140    -0.978695
 H     3.108443     3.434479    -1.663331
 H     3.408366     3.012914     0.029364
 H     4.264486     2.153611    -1.267971
 C     1.952193     1.105281    -2.505241
 H     1.123438     0.386844    -2.583613
 H     1.728532     1.954614    -3.171004
 H     2.857236     0.616072    -2.896290
 H    -0.883170     1.350095    -1.818236
 C    -2.784414     2.253273    -2.120545
 H    -2.366198     3.023322    -2.789967
 H    -3.186982     1.455054    -2.759193
 H    -3.624021     2.718180    -1.582965
 C    -1.092741     2.918033    -0.388337
 H    -0.346184     2.574815     0.340232
 H    -0.600602     3.634617    -1.065522
 H    -1.864925     3.472876     0.163969
 H    -2.936412    -0.661142    -2.015145
 C    -3.358215    -2.168739    -0.566249
 H    -4.101866    -2.702399    -1.180097
 H    -2.388335    -2.660292    -0.693027
 H    -3.649642    -2.285801     0.488302
 C    -4.737276    -0.136950    -0.960470
 H    -4.795722     0.933284    -1.186196
 H    -5.351627    -0.668888    -1.705284
 H    -5.209728    -0.303644     0.018971
 H    -1.881500     1.545877     1.887722
 C    -3.909300     1.982352     1.355791
 H    -4.027036     2.532322     2.304045
 H    -3.757918     2.727079     0.564014
 H    -4.862491     1.475107     1.159904
 C    -3.086936    -0.094883     2.501263
 H    -2.230671    -0.762877     2.657805
 H    -3.358550     0.357631     3.468632
 H    -3.944506    -0.702134     2.171645
