  96
scf done:    -2010.483896
 C     1.424585    -2.020940    -2.595383
 H     0.867383    -2.911333    -2.904027
 H     1.479309    -1.242729    -3.362992
 C     2.486693    -2.144443    -1.660796
 H     2.736847    -3.129911    -1.254667
 H     3.341065    -1.465431    -1.725943
 H     1.397250     0.147770    -1.231721
Rh     0.783871    -1.232853    -0.696284
 C    -1.167759     0.511749    -3.003169
 C    -2.716944    -1.328050    -1.351416
 C    -1.812597     1.147111    -0.182029
 C     1.007973    -1.407405     2.839561
 C     3.427505    -0.603933     1.472108
 C     1.258598     1.292033     1.864287
 P     1.591297    -0.452316     1.337576
 P    -1.235583    -0.224252    -1.279089
 C     0.160345    -2.899018    -0.048721
 O    -0.158318    -3.931834     0.348217
 H    -0.546019    -0.231836    -3.528782
 C    -2.484517     0.637155    -3.762154
 H    -2.291563     1.047101    -4.767128
 H    -2.981344    -0.333536    -3.899416
 H    -3.196580     1.313432    -3.266589
 C    -0.393399     1.825009    -2.989840
 H     0.564573     1.716068    -2.459526
 H    -0.173905     2.148974    -4.019531
 H    -0.967211     2.633096    -2.508055
 H    -3.562046    -0.792018    -1.812181
 H    -2.446289    -2.149317    -2.036830
 C    -3.138428    -1.890415    -0.002139
 H    -2.275311    -2.363139     0.490465
 H    -3.453734    -1.067485     0.663254
 C    -4.264797    -2.909603    -0.100578
 H    -3.950261    -3.731931    -0.768316
 H    -5.143463    -2.446887    -0.586471
 C    -4.672673    -3.484746     1.248572
 H    -3.787317    -3.942677     1.723940
 H    -4.976646    -2.659127     1.916743
 C    -5.792697    -4.508211     1.157006
 H    -6.063111    -4.905569     2.147077
 H    -5.501361    -5.362199     0.524569
 H    -6.701651    -4.068355     0.715517
 H    -1.827251     0.704403     0.828454
 H    -0.984178     1.870702    -0.163169
 C    -3.126896     1.861000    -0.460354
 H    -3.093612     2.340421    -1.452230
 H    -3.957192     1.134686    -0.502666
 C    -3.438798     2.922582     0.586669
 H    -2.604033     3.646365     0.625356
 H    -3.469688     2.452064     1.586589
 C    -4.740089     3.671477     0.337831
 H    -4.707724     4.126041    -0.668302
 H    -5.574942     2.948829     0.311126
 C    -5.023245     4.745818     1.375320
 H    -5.968128     5.271551     1.170775
 H    -4.220397     5.500621     1.396399
 H    -5.094270     4.315253     2.387176
 H     1.257928    -2.448229     2.566506
 C     1.694712    -1.072271     4.158147
 H     1.290892    -1.706489     4.964042
 H     2.780358    -1.240126     4.126548
 H     1.519589    -0.025781     4.453991
 C    -0.508376    -1.309743     2.972150
 H    -1.009936    -1.477555     2.009288
 H    -0.883738    -2.056462     3.689383
 H    -0.814418    -0.318577     3.344412
 H     3.757622    -0.373204     2.498111
 H     3.627520    -1.675069     1.297654
 C     4.207038     0.237030     0.467172
 H     3.663993     0.257303    -0.492245
 H     4.248574     1.282895     0.815295
 C     5.624440    -0.268166     0.239053
 H     5.578849    -1.309603    -0.128556
 H     6.163599    -0.313926     1.203295
 C     6.417363     0.578630    -0.746318
 H     5.867106     0.623698    -1.702912
 H     6.459513     1.619317    -0.378176
 C     7.826753     0.063950    -0.989859
 H     8.373256     0.695543    -1.706660
 H     7.812279    -0.961174    -1.393793
 H     8.410570     0.039556    -0.055424
 H     0.201757     1.297211     2.179289
 H     1.853997     1.512831     2.766622
 C     1.460419     2.369420     0.807361
 H     2.534472     2.541887     0.634419
 H     1.070864     2.000276    -0.155328
 C     0.784794     3.685263     1.167806
 H     1.227968     4.094131     2.094100
 H    -0.276151     3.490622     1.411221
 C     0.855250     4.728396     0.061575
 H     1.913068     4.941915    -0.172400
 H     0.429488     4.297734    -0.862415
 C     0.131132     6.020179     0.404470
 H     0.196887     6.754596    -0.412506
 H     0.553408     6.488480     1.308124
 H    -0.938192     5.836726     0.600964
