  76
scf done:    -2148.338688
 C    -0.837284    -2.328156    -2.099904
 H    -1.538937    -3.110079    -1.794113
 H    -1.260980    -1.613488    -2.811192
 C     0.555667    -2.586936    -2.107416
 H     0.921910    -3.575553    -1.811764
 H     1.198377    -2.064321    -2.821092
 H     0.339501    -0.153596    -1.468700
Rh     0.062604    -1.323096    -0.422240
 C    -1.952798     0.436635     2.076669
 C    -1.806310     1.677627    -0.554563
 C    -3.361972    -0.677441    -0.168996
 C     2.634298    -0.824602     2.104374
 C     3.443624    -0.293587    -0.579921
 C     1.623418     1.522831     0.697964
 P     1.924486    -0.272122     0.456975
 P    -1.717044     0.032292     0.258995
 C    -0.179878    -2.810605     0.736045
 O    -0.334447    -3.753547     1.377194
 H    -1.249397     1.273139     2.231087
 C    -3.366782     0.873817     2.443692
 H    -3.388546     1.255411     3.477650
 H    -3.760186     1.659471     1.783797
 H    -4.062804     0.023503     2.385240
 C    -1.498678    -0.721055     2.954625
 H    -0.454860    -0.997041     2.752737
 H    -1.588040    -0.447548     4.018177
 H    -2.117598    -1.617693     2.792679
 C    -1.982784     2.887053     0.123098
 C    -1.686165     1.705250    -1.952642
 C    -1.947051     4.105960    -1.964734
 C    -1.761801     2.904479    -2.651754
 C    -2.051870     4.091945    -0.577775
 H    -2.053518     2.911261     1.210365
 H    -2.181793     5.026677    -0.027019
 H    -2.003208     5.050060    -2.512059
 H    -1.669889     2.902650    -3.740577
 H    -1.521561     0.768922    -2.490807
 C    -4.405837     0.088717    -0.701502
 C    -3.588549    -2.035788     0.090748
 C    -5.866159    -1.838245    -0.689031
 C    -4.833457    -2.609166    -0.156127
 C    -5.646364    -0.490284    -0.965129
 H    -4.249165     1.148110    -0.915668
 H    -6.447942     0.120457    -1.387988
 H    -6.839295    -2.290272    -0.895345
 H    -4.992353    -3.669125     0.056512
 H    -2.776485    -2.654274     0.477985
 H     1.792240    -0.687865     2.806456
 C     2.975047    -2.309587     2.056875
 H     3.317114    -2.646699     3.048057
 H     2.117668    -2.929498     1.767323
 H     3.791370    -2.501170     1.342714
 C     3.835856    -0.018134     2.582545
 H     3.650636     1.064956     2.594883
 H     4.109898    -0.325647     3.604814
 H     4.707874    -0.202515     1.937229
 C     3.715645    -1.457858    -1.308008
 C     4.368754     0.758374    -0.614354
 C     5.799747    -0.518331    -2.086313
 C     5.535284     0.647698    -1.368441
 C     4.889405    -1.573115    -2.050603
 H     2.983842    -2.268292    -1.292382
 H     5.087414    -2.488964    -2.612750
 H     6.715208    -0.602507    -2.677051
 H     6.244480     1.478818    -1.392626
 H     4.175116     1.674319    -0.052205
 C     1.586048     2.360096    -0.426808
 C     1.333313     2.074302     1.951426
 C     1.055943     4.262401     0.963414
 C     1.051544     3.434831     2.082900
 C     1.317162     3.717745    -0.293960
 H     1.770270     1.938891    -1.418085
 H     1.292695     4.352125    -1.182581
 H     0.840744     5.328515     1.066547
 H     0.835193     3.848066     3.071273
 H     1.329701     1.444709     2.843783
