  92
scf done:    -4274.970471
 C     0.636130     0.394021    -3.625470
 H     0.458100     1.192395    -4.355032
 H     1.715734     0.292719    -3.451225
 C    -0.066402    -0.895372    -3.905473
 H    -0.626757    -0.916046    -4.850317
 H     0.575424    -1.785562    -3.834332
 H    -0.915206    -1.121664    -3.133676
Co    -0.614599     0.282227    -2.129638
 C     2.167201     1.643364    -0.834809
 O     0.655745     0.087504     0.777758
 O     2.113461    -1.055135    -1.045461
 C    -2.344012     0.173632     0.852333
 O    -3.645010    -0.117358    -1.533861
 O    -2.351561    -2.054456    -0.653204
 P    -2.159716    -0.397611    -0.866471
 P     1.024235     0.213435    -0.855526
 C    -1.378916     1.783516    -2.535526
 O    -1.808190     2.832565    -2.745152
 H     2.939798     1.476502    -0.066983
 H     2.690465     1.656538    -1.804418
 C     1.433401     2.955338    -0.595861
 H     0.751777     3.154940    -1.437617
 H     0.781176     2.857292     0.289509
 C     2.369913     4.137704    -0.397286
 H     3.021349     4.242509    -1.283652
 H     3.051498     3.930465     0.448721
 C     1.634372     5.446786    -0.146910
 H     0.953719     5.644620    -0.993330
 H     0.981004     5.329419     0.736301
 C     2.562365     6.632919     0.056750
 H     2.000688     7.561971     0.236370
 H     3.201124     6.796179    -0.826101
 H     3.229842     6.475576     0.919434
 C     1.527207    -0.077539     1.813749
 C     2.078191     1.025892     2.469541
 H     1.824305     2.033865     2.137829
 C     1.820448    -1.370294     2.251200
 H     1.373607    -2.213969     1.726389
 C     2.939893     0.834682     3.547844
 H     3.384281     1.679574     4.076863
 C     2.677153    -1.566737     3.329752
 H     2.920081    -2.570529     3.682921
 C     3.232412    -0.459685     3.962417
 F     4.056299    -0.641559     4.992905
 C     3.469632    -1.007610    -1.212701
 C     4.336611    -0.846851    -0.128910
 H     3.929509    -0.734864     0.876127
 C     3.990506    -1.179561    -2.497662
 H     3.301592    -1.321047    -3.332683
 C     5.714141    -0.842316    -0.332449
 H     6.407509    -0.717572     0.501150
 C     5.366711    -1.178964    -2.705972
 H     5.792086    -1.312766    -3.702123
 C     6.214228    -1.005211    -1.618389
 F     7.532342    -0.999470    -1.812709
 H    -3.323695    -0.158288     1.232647
 H    -1.564697    -0.374152     1.404827
 C    -2.131044     1.673038     1.009565
 H    -1.292590     1.978455     0.363256
 H    -3.013606     2.221145     0.638385
 C    -1.822763     2.078423     2.442589
 H    -0.954539     1.492498     2.794097
 H    -2.663578     1.797769     3.102424
 C    -1.521897     3.561982     2.599444
 H    -0.710671     3.838284     1.901948
 H    -2.398853     4.150344     2.277057
 C    -1.130321     3.949801     4.015798
 H    -0.912633     5.025406     4.099026
 H    -0.233055     3.400042     4.344103
 H    -1.935144     3.716965     4.731394
 C    -4.837869    -0.225240    -0.867880
 C    -5.551166     0.943939    -0.600669
 H    -5.129922     1.900413    -0.916124
 C    -5.355310    -1.468533    -0.499198
 H    -4.785015    -2.369018    -0.727418
 C    -6.781292     0.877022     0.047170
 H    -7.360261     1.775954     0.265987
 C    -6.583869    -1.537651     0.153359
 H    -7.014069    -2.495024     0.453119
 C    -7.280885    -0.365284     0.420516
 F    -8.456384    -0.433805     1.044661
 C    -1.418116    -2.842475    -0.040020
 C    -1.707791    -3.370738     1.220207
 H    -2.652792    -3.107843     1.699186
 C    -0.215172    -3.161596    -0.672011
 H     0.014492    -2.724669    -1.642418
 C    -0.805487    -4.228469     1.843507
 H    -1.010951    -4.655857     2.826444
 C     0.693994    -4.012709    -0.050213
 H     1.647088    -4.259695    -0.520461
 C     0.385922    -4.539591     1.198088
 F     1.262620    -5.343336     1.802188
