  94
scf done:    -3655.996652
 C    -0.069018    -2.372790     2.844629
 H    -0.435063    -3.374231     3.100612
 H     0.988573    -2.281527     3.128502
 C    -0.932215    -1.251464     3.315055
 H    -1.901963    -1.552253     3.733724
 H    -0.438640    -0.548989     4.004262
 H    -1.183569    -0.508757     2.444085
Co    -0.676637    -1.598488     1.164853
 C     2.130469     0.585059     1.041454
 C     2.547501    -2.267389     0.803782
 C     1.426238    -0.779868    -1.431794
 C    -2.446581    -1.178930    -1.748174
 C    -3.800462    -0.769752     0.783242
 C    -2.030736     1.297077    -0.324267
 P    -2.132830    -0.536077    -0.036234
 P     1.268808    -0.937681     0.443464
 C    -1.158825    -3.123004     0.571344
 O    -1.380722    -4.170864     0.123034
 H     1.645978     1.421634     0.518455
 C     1.999693     0.771700     2.542622
 H     2.438803    -0.066419     3.108275
 H     0.942599     0.855516     2.831402
 H     3.182205     0.586777     0.718164
 H     2.506280     1.692611     2.870675
 H     2.599971    -2.319301     1.901131
 H     2.070213    -3.202135     0.473272
 C     3.905419    -2.099649     0.208912
 C     4.242293    -2.711227    -1.006602
 H     3.525333    -3.380311    -1.490104
 C     4.869116    -1.291046     0.828773
 H     4.637424    -0.840777     1.798424
 C     5.484499    -2.484229    -1.594394
 H     5.733000    -2.968173    -2.542021
 C     6.116217    -1.041847     0.249069
 C     7.099969    -0.120963     0.910856
 H     6.999494     0.904668     0.517223
 H     6.939255    -0.071723     1.997305
 H     8.137228    -0.438792     0.730172
 C     6.411595    -1.646253    -0.979671
 H     7.383728    -1.470569    -1.448566
 H     2.015902    -1.645374    -1.767488
 H     0.411312    -0.915941    -1.825408
 C     2.019984     0.486078    -1.969506
 C     1.206766     1.474480    -2.534346
 H     0.134701     1.290845    -2.642975
 C     3.398886     0.724949    -1.902013
 H     4.052378    -0.046568    -1.489736
 C     1.753486     2.676692    -2.981757
 H     1.104962     3.437039    -3.424573
 C     3.964738     1.924098    -2.339358
 C     5.442492     2.157467    -2.208087
 H     5.989099     1.206474    -2.133215
 H     5.842056     2.723093    -3.062913
 H     5.668301     2.740365    -1.298955
 C     3.121884     2.906756    -2.875774
 H     3.545726     3.851642    -3.227165
 H    -3.047433    -2.090814    -1.597072
 C    -3.087717    -0.261580    -2.778823
 H    -2.432937     0.584731    -3.034394
 H    -4.048467     0.147158    -2.437064
 H    -1.473643    -1.543586    -2.112640
 H    -3.275661    -0.815225    -3.711880
 H    -3.873167    -1.861902     0.895207
 H    -3.694989    -0.369299     1.802523
 C    -5.006003    -0.215959     0.093163
 C    -5.380259     1.126719     0.236562
 H    -4.819915     1.780607     0.909881
 C    -5.769777    -1.031575    -0.750800
 H    -5.495872    -2.086045    -0.855391
 C    -6.465607     1.634086    -0.473715
 H    -6.744767     2.684400    -0.359303
 C    -6.864278    -0.541001    -1.468517
 C    -7.677089    -1.449529    -2.344610
 H    -7.070902    -2.276432    -2.741816
 H    -8.511071    -1.897558    -1.778871
 H    -8.114581    -0.905023    -3.193911
 C    -7.197097     0.811414    -1.326781
 H    -8.044581     1.220015    -1.883886
 H    -1.379741     1.419186    -1.200832
 H    -3.028065     1.661141    -0.621979
 C    -1.465516     2.105634     0.806953
 C    -2.020394     2.091638     2.094701
 H    -2.900589     1.482930     2.308630
 C    -0.347841     2.913004     0.581682
 H     0.094091     2.934940    -0.419046
 C    -1.456458     2.853142     3.113922
 H    -1.897700     2.830650     4.113370
 C     0.239070     3.679435     1.595242
 C     1.463110     4.496582     1.301629
 H     2.272589     3.862308     0.905059
 H     1.257465     5.263159     0.537887
 H     1.836252     5.005424     2.201275
 C    -0.330683     3.638479     2.870081
 H     0.112501     4.224257     3.679801
