  64
scf done:    -3111.793751
 C    -1.927958    -2.877527    -1.102487
 H    -1.619101    -3.842162    -1.521779
 H    -2.659776    -3.006757    -0.298567
 C    -2.251449    -1.828018    -2.110620
 H    -2.153430    -2.145623    -3.158454
 H    -3.222913    -1.335435    -1.959722
 H    -1.515924    -0.910046    -2.060624
Co    -0.529533    -1.561483    -0.773271
 C    -1.719826     0.823352     1.434522
 O    -2.611340    -1.713176     1.635619
 O    -0.145596    -1.223245     2.306576
 C     2.091106     0.316277     0.267168
 O     1.844074    -0.011351    -2.335093
 O     0.088767     1.494368    -1.221070
 P     0.830716     0.023962    -1.030164
 P    -1.254360    -0.930352     1.106157
 C     0.655477    -2.803352    -0.782018
 O     1.420032    -3.662727    -0.672142
 H    -2.057747     0.988773     2.470893
 H    -0.801809     1.418491     1.294871
 C    -2.771833     1.278594     0.432768
 H    -2.432842     0.991562    -0.576689
 H    -3.711670     0.727896     0.612097
 C    -3.028556     2.776833     0.462594
 H    -2.072769     3.304205     0.289008
 H    -3.361909     3.080710     1.472123
 C    -4.049433     3.235379    -0.568894
 H    -3.708919     2.920796    -1.571292
 H    -5.001633     2.702686    -0.397510
 C    -4.291779     4.735883    -0.556258
 H    -5.031267     5.036314    -1.314025
 H    -3.362263     5.291911    -0.760322
 H    -4.665292     5.072683     0.424345
 C    -3.080207    -1.688192     2.955990
 H    -2.367667    -2.172200     3.644737
 H    -3.281955    -0.662208     3.314614
 H    -4.024811    -2.250285     2.985707
 C     0.059768    -0.463954     3.469522
 H     0.438422     0.547308     3.240420
 H    -0.849983    -0.359914     4.084282
 H     0.820156    -0.985066     4.069279
 H     1.608024     0.982227     1.004450
 H     2.188163    -0.656176     0.777203
 C     3.460917     0.842384    -0.137457
 H     3.891370     0.167817    -0.893911
 H     3.369610     1.821754    -0.634676
 C     4.406260     0.964267     1.049513
 H     4.494822    -0.018964     1.546454
 H     3.965560     1.640889     1.805288
 C     5.792766     1.466090     0.671199
 H     6.226013     0.788027    -0.084994
 H     5.698641     2.446842     0.171699
 C     6.737615     1.583482     1.856141
 H     7.730349     1.947485     1.550880
 H     6.878737     0.609536     2.351860
 H     6.345482     2.282352     2.612745
 C     1.360276    -0.513825    -3.560118
 H     0.752952    -1.420663    -3.395540
 H     0.744814     0.236340    -4.085919
 H     2.227870    -0.764482    -4.186054
 C     0.801446     2.681303    -1.474982
 H     1.302444     3.056136    -0.565051
 H     1.559156     2.538587    -2.262587
 H     0.078104     3.439747    -1.807420
