  96
scf done:    -3282.423281
 C     0.515124    -1.483289    -2.564047
 H     0.766484    -2.534421    -2.751041
 H    -0.294625    -1.180393    -3.245390
 C     1.687488    -0.555302    -2.544000
 H     2.664476    -1.039694    -2.681249
 H     1.610327     0.300752    -3.232695
 H     1.801664    -0.021849    -1.511334
Co     0.501541    -0.883454    -0.710606
 C    -1.260185     1.465578    -2.479980
 C    -2.723157    -0.878251    -1.550533
 C    -2.096542     1.185960     0.341060
 C     0.228549    -0.174084     2.707670
 C     2.847742    -0.870951     1.677147
 C     1.687852     1.750305     1.204701
 P     1.268809    -0.054184     1.154918
 P    -1.333242     0.239356    -1.060660
 C     0.501439    -2.500715    -0.166585
 O     0.398670    -3.609448     0.166096
 H    -0.607127     0.937403    -3.196615
 C    -2.552717     1.797466    -3.215550
 H    -2.340538     2.474980    -4.059636
 H    -3.032621     0.900475    -3.631821
 H    -3.286436     2.300996    -2.569941
 C    -0.515374     2.715106    -2.024090
 H     0.407733     2.448621    -1.487581
 H    -0.236844     3.344073    -2.884824
 H    -1.131434     3.334219    -1.352041
 H    -3.626361    -0.292777    -1.787723
 H    -2.401146    -1.364070    -2.486294
 C    -3.035991    -1.938763    -0.505589
 H    -2.109784    -2.480338    -0.256918
 H    -3.370132    -1.457123     0.431301
 C    -4.095873    -2.934795    -0.953445
 H    -3.766918    -3.412973    -1.894006
 H    -5.032173    -2.400544    -1.200078
 C    -4.382069    -4.011117     0.084455
 H    -3.439108    -4.531390     0.327792
 H    -4.707054    -3.529400     1.024103
 C    -5.427361    -5.020689    -0.361013
 H    -5.610923    -5.784422     0.410011
 H    -5.110641    -5.543997    -1.277642
 H    -6.390096    -4.530645    -0.579832
 H    -2.139974     0.452701     1.163376
 H    -1.348564     1.930750     0.659419
 C    -3.457299     1.849280     0.188163
 H    -3.396374     2.675167    -0.539407
 H    -4.186025     1.132746    -0.227536
 C    -3.992733     2.391085     1.507333
 H    -3.261939     3.102673     1.934093
 H    -4.062825     1.563904     2.237485
 C    -5.348441     3.072306     1.384115
 H    -5.273050     3.897810     0.654109
 H    -6.072150     2.358708     0.951730
 C    -5.880710     3.604062     2.704932
 H    -6.860589     4.090017     2.583192
 H    -5.193681     4.346107     3.142865
 H    -6.000792     2.793857     3.442129
 H    -0.482868     0.661443     2.590220
 C    -0.566315    -1.472914     2.739232
 H    -1.224157    -1.499600     3.622922
 H    -1.181853    -1.586775     1.837147
 H     0.093945    -2.352817     2.788232
 C     0.999900     0.038282     4.005605
 H     1.596940     0.962447     4.004309
 H     0.298413     0.103509     4.852893
 H     1.679178    -0.802577     4.211922
 H     3.355008    -0.257169     2.440600
 H     2.542187    -1.809407     2.172527
 C     3.786324    -1.205426     0.526416
 H     3.213076    -1.760481    -0.234522
 H     4.123317    -0.280571     0.027885
 C     5.000868    -2.014374     0.955815
 H     4.661458    -2.944437     1.447250
 H     5.566943    -1.458176     1.725879
 C     5.928656    -2.364353    -0.199278
 H     5.354542    -2.915280    -0.965025
 H     6.261490    -1.432343    -0.690276
 C     7.139211    -3.181708     0.221348
 H     7.788930    -3.418159    -0.634985
 H     6.835640    -4.135814     0.681520
 H     7.749452    -2.640211     0.962335
 H     0.732785     2.275062     1.032435
 H     2.013726     2.021075     2.222959
 C     2.715118     2.221327     0.186313
 H     3.709025     1.817846     0.443223
 H     2.472504     1.805558    -0.807122
 C     2.801039     3.737536     0.082090
 H     3.052808     4.161977     1.071046
 H     1.802327     4.139234    -0.169644
 C     3.810336     4.217591    -0.951045
 H     4.806850     3.813279    -0.699479
 H     3.552148     3.782402    -1.932936
 C     3.884600     5.731389    -1.065549
 H     4.620034     6.047040    -1.820891
 H     4.174345     6.191088    -0.106885
 H     2.909703     6.157928    -1.351974
