  84
scf done:    -3125.296371
 C     2.360378    -0.429680     2.561220
 H     2.280552    -0.933139     3.532566
 H     3.341473    -0.637187     2.116655
 C     1.985873     1.015219     2.581012
 H     1.662972     1.400093     3.558951
 H     2.743565     1.690821     2.155592
 H     1.061571     1.235351     1.897619
Co     0.769131    -0.425626     1.438316
 C     1.763547     0.555790    -1.791655
 C     3.579168    -1.172674    -0.435822
 C     1.078465    -2.201515    -1.391542
 C    -2.100369    -0.722033    -0.450750
 C    -2.379961     0.430247     2.185358
 C    -1.163373     2.004488     0.077028
 P    -1.177624     0.296091     0.790099
 P     1.774479    -0.751693    -0.473036
 C     0.118014    -1.784245     2.234626
 O    -0.290615    -2.770658     2.692036
 H     2.342416     0.236731    -2.674605
 H     0.713129     0.646546    -2.123300
 C     2.259931     1.899724    -1.276458
 H     1.799628     2.091662    -0.291452
 H     3.346792     1.848251    -1.088098
 C     1.960416     3.065030    -2.208086
 H     0.876343     3.080809    -2.427917
 H     2.456090     2.901652    -3.182150
 C     2.371458     4.417101    -1.643056
 H     1.882253     4.556878    -0.662435
 H     3.456185     4.409749    -1.435837
 C     2.029171     5.583468    -2.555516
 H     2.339108     6.545889    -2.121011
 H     0.944152     5.637569    -2.742190
 H     2.525539     5.485096    -3.534394
 H     3.995436    -1.128114    -1.457064
 H     4.073770    -0.368324     0.135761
 C     3.873629    -2.521620     0.210537
 H     3.528592    -3.329571    -0.456421
 H     3.274878    -2.617666     1.131402
 C     5.348054    -2.719475     0.524838
 H     5.968368    -2.637053    -0.382441
 H     5.705514    -1.960218     1.239137
 H     5.536662    -3.708421     0.969830
 H     1.111132    -3.039812    -0.675307
 H     0.007860    -1.985820    -1.529621
 C     1.704127    -2.600270    -2.721261
 H     2.783108    -2.787568    -2.590150
 H     1.628722    -1.763676    -3.435894
 C     1.047947    -3.835346    -3.321424
 H     1.140931    -4.701795    -2.647300
 H    -0.027717    -3.670268    -3.495058
 H     1.503621    -4.110628    -4.285020
 H    -1.683739    -0.444290    -1.435246
 H    -1.771725    -1.758046    -0.268479
 C    -3.622800    -0.676087    -0.485674
 H    -4.023690    -1.041486     0.474250
 H    -3.982179     0.360724    -0.585884
 C    -4.200562    -1.517183    -1.616470
 H    -3.831046    -2.554746    -1.524045
 H    -3.810251    -1.147634    -2.582742
 C    -5.722334    -1.523123    -1.656106
 H    -6.106733    -1.893761    -0.689401
 H    -6.085685    -0.483472    -1.741768
 C    -6.293729    -2.360174    -2.789028
 H    -7.394113    -2.345333    -2.791018
 H    -5.975542    -3.411983    -2.707763
 H    -5.954378    -1.990047    -3.769979
 H    -3.341282     0.842740     1.837107
 H    -2.569877    -0.608599     2.506677
 C    -1.834144     1.234728     3.356765
 H    -1.649732     2.276639     3.039794
 H    -0.849377     0.817534     3.625610
 C    -2.757437     1.226150     4.564274
 H    -3.744629     1.651610     4.321360
 H    -2.920376     0.199386     4.928485
 H    -2.337402     1.811907     5.396146
 H    -0.645150     2.622439     0.831608
 H    -0.467064     1.955431    -0.774655
 C    -2.457816     2.682206    -0.348838
 H    -3.181754     2.676556     0.483405
 H    -2.926325     2.108037    -1.164843
 C    -2.225414     4.113990    -0.810748
 H    -1.792217     4.726774    -0.004018
 H    -1.524134     4.149236    -1.660287
 H    -3.162119     4.595456    -1.130264
