  68
scf done:    -3960.707596
 C     1.644200     0.973530     3.443734
 H     1.559690     0.528599     4.442036
 H     2.698230     1.162976     3.208153
 C     0.728562     2.124090     3.184424
 H     0.090097     2.401473     4.034279
 H     1.223698     3.015778     2.775584
 H    -0.064414     1.894568     2.356542
Co     0.481652     0.259417     2.054194
 C     3.765718    -0.242046     1.210787
 O     1.777979    -1.595426    -0.024487
 O     2.243288     0.745246    -0.750742
 C    -0.946696    -0.578393    -0.986739
 O    -2.536976    -0.503362     1.199996
 O    -1.630402     1.706970     0.322414
 P    -1.103548     0.156855     0.663363
 P     2.019420    -0.122292     0.708490
 C     0.008116    -1.091703     3.022634
 O    -0.214262    -2.066224     3.597945
 H     4.125388     0.761079     1.482235
 H     3.841262    -0.892891     2.093255
 H     4.383983    -0.639023     0.393739
 C     2.701128    -2.298743    -0.750919
 C     3.179292    -3.498278    -0.221039
 H     2.826114    -3.816702     0.761579
 C     3.125445    -1.866776    -2.009701
 H     2.743669    -0.925743    -2.405064
 C     4.084782    -4.269816    -0.943485
 H     4.471041    -5.212334    -0.551451
 C     4.035300    -2.634688    -2.732585
 H     4.384011    -2.321789    -3.718497
 C     4.504117    -3.826089    -2.192239
 F     5.373226    -4.559806    -2.886667
 C     2.476247     2.089858    -0.677198
 C     3.752908     2.573648    -0.974005
 H     4.535493     1.863687    -1.248673
 C     1.455636     2.979974    -0.328541
 H     0.458420     2.600012    -0.103313
 C     4.013117     3.940937    -0.930233
 H     5.000684     4.341669    -1.165680
 C     1.714698     4.347710    -0.276035
 H     0.932075     5.061222    -0.011415
 C     2.989785     4.812205    -0.575802
 F     3.235955     6.121226    -0.528378
 H    -0.697014    -1.642203    -0.876391
 H    -1.866660    -0.468354    -1.576349
 H    -0.102516    -0.081686    -1.485726
 C    -3.129376    -1.632997     0.697988
 C    -2.756405    -2.884467     1.191777
 H    -1.987666    -2.947197     1.964268
 C    -4.126440    -1.525727    -0.272653
 H    -4.411805    -0.537868    -0.638938
 C    -3.375053    -4.033081     0.705752
 H    -3.103260    -5.023522     1.074935
 C    -4.749022    -2.672826    -0.757984
 H    -5.532185    -2.617067    -1.516092
 C    -4.362982    -3.913442    -0.264735
 F    -4.955214    -5.012069    -0.730633
 C    -2.721928     1.995003    -0.454467
 C    -3.992903     2.031344     0.121468
 H    -4.100387     1.794060     1.180462
 C    -2.550799     2.292676    -1.806943
 H    -1.547003     2.274625    -2.235705
 C    -5.098438     2.356080    -0.660034
 H    -6.103610     2.392528    -0.236246
 C    -3.654032     2.618049    -2.591950
 H    -3.548733     2.857444    -3.651501
 C    -4.915569     2.642289    -2.008569
 F    -5.972274     2.951360    -2.757020
