 108
scf done:    -3439.551990
 C    -1.390235     3.091419    -0.251716
 H    -1.453029     3.778333    -1.104748
 H    -2.338440     3.099297     0.299796
 C    -0.178868     3.274498     0.601408
 H     0.510485     4.064340     0.269624
 H    -0.388471     3.401024     1.674525
 H     0.501158     2.322381     0.602452
Co    -0.452389     1.409401    -0.544117
 C    -1.221422    -0.729468     2.145742
 C    -3.382360     0.880756     1.215325
 C    -2.431270    -1.292212    -0.393012
 C     1.075750    -1.571240    -1.365427
 C     2.576901     0.852544    -1.850139
 C     2.237260    -0.076676     0.874348
 P     1.308939     0.143829    -0.710437
 P    -1.799910     0.133695     0.606232
 C    -0.682384     1.492946    -2.230625
 O    -0.922078     1.478201    -3.367108
 H    -2.041543    -1.295957     2.617647
 H    -0.478402    -1.476961     1.812976
 C    -0.578653     0.228549     3.139627
 H     0.070509     0.926480     2.582748
 H    -1.354944     0.859410     3.607116
 C     0.238369    -0.463701     4.221443
 H     0.955761    -1.155654     3.741655
 H    -0.419501    -1.103588     4.836878
 C     1.006168     0.498630     5.116331
 H     1.639883     1.144091     4.481989
 H     0.294213     1.179053     5.616035
 C     1.869201    -0.198988     6.155080
 H     2.407178     0.522075     6.788917
 H     2.622733    -0.845892     5.676444
 H     1.262361    -0.836802     6.817760
 H    -3.871968     0.193917     1.926703
 H    -3.100574     1.777496     1.793519
 C    -4.334752     1.267252     0.090835
 H    -3.763304     1.754407    -0.717712
 H    -4.767630     0.355256    -0.355718
 C    -5.462182     2.183610     0.543670
 H    -5.027984     3.108291     0.966506
 H    -6.016213     1.706868     1.373394
 C    -6.432973     2.548198    -0.570581
 H    -5.870035     3.015226    -1.397768
 H    -6.865111     1.622502    -0.990821
 C    -7.549782     3.476204    -0.121037
 H    -8.233891     3.721105    -0.947728
 H    -7.147151     4.424964     0.269064
 H    -8.149740     3.019980     0.683125
 H    -2.859998    -0.839626    -1.302760
 H    -1.540679    -1.839386    -0.738266
 C    -3.418707    -2.254449     0.250036
 H    -2.958359    -2.736313     1.129732
 H    -4.294099    -1.702418     0.633719
 C    -3.898251    -3.335170    -0.710430
 H    -3.025168    -3.888679    -1.102427
 H    -4.365617    -2.857566    -1.590792
 C    -4.880257    -4.316431    -0.086020
 H    -4.408983    -4.788641     0.794461
 H    -5.748524    -3.757453     0.306130
 C    -5.356850    -5.391447    -1.049401
 H    -6.064835    -6.084182    -0.569615
 H    -4.512875    -5.989145    -1.430083
 H    -5.863927    -4.948951    -1.921938
 H     0.721836    -2.173772    -0.510111
 H     0.218188    -1.497091    -2.053856
 C     2.229027    -2.274005    -2.070455
 H     2.511560    -1.704151    -2.971150
 H     3.127039    -2.290974    -1.432140
 C     1.877159    -3.699385    -2.475874
 H     0.970124    -3.685240    -3.107295
 H     1.602905    -4.278283    -1.574631
 C     2.997857    -4.417186    -3.214911
 H     3.267184    -3.835433    -4.114187
 H     3.903050    -4.422054    -2.581781
 C     2.643939    -5.840807    -3.613259
 H     3.472363    -6.332418    -4.145343
 H     1.763748    -5.862664    -4.275784
 H     2.404702    -6.455189    -2.730235
 H     3.481052     0.222305    -1.874018
 H     2.122948     0.809442    -2.855254
 C     2.921944     2.293445    -1.506638
 H     1.978937     2.861436    -1.430235
 H     3.389983     2.340511    -0.506315
 C     3.842081     2.956413    -2.520627
 H     3.369888     2.911892    -3.518701
 H     4.780253     2.377677    -2.606392
 C     4.169052     4.403967    -2.181323
 H     3.226188     4.971680    -2.090105
 H     4.638573     4.444194    -1.182095
 C     5.075529     5.075211    -3.200213
 H     5.292524     6.119118    -2.927325
 H     4.613948     5.082238    -4.200734
 H     6.038888     4.547090    -3.287611
 H     2.385394     0.947745     1.258904
 H     1.516413    -0.536472     1.567446
 C     3.551869    -0.839445     0.918615
 H     3.388003    -1.889483     0.623690
 H     4.265074    -0.423284     0.186195
 C     4.178954    -0.807976     2.307079
 H     3.452045    -1.202204     3.040895
 H     4.354566     0.242724     2.602362
 C     5.479875    -1.589359     2.418753
 H     5.298894    -2.637622     2.121417
 H     6.205177    -1.193053     1.686115
 C     6.084461    -1.549292     3.812972
 H     7.020307    -2.125524     3.868865
 H     5.390860    -1.967542     4.560482
 H     6.311107    -0.515604     4.120043
