  80
scf done:    -3721.100391
 C     1.816403    -2.717422     1.415068
 H     2.379950    -3.068750     2.286958
 H     1.199668    -3.532633     1.010778
 C     2.610665    -1.976544     0.391563
 H     3.663693    -1.809529     0.653672
 H     2.525127    -2.379040    -0.627959
 H     2.216877    -0.889767     0.211922
Co     1.053179    -0.920810     1.523970
 C    -1.662809    -2.787104     2.227054
 O    -2.006271    -0.518315     0.816193
 O    -1.034689    -2.686047    -0.268005
 C    -0.407451     2.036861     2.343242
 O     1.958466     2.135284     1.217084
 O    -0.036396     1.478046    -0.286645
 P     0.633304     1.113805     1.192879
 P    -0.817260    -1.680689     1.064892
 C     1.504626    -0.723213     3.181696
 O     1.700308    -0.641190     4.316888
 H    -1.004490    -3.645146     2.418714
 H    -1.823746    -2.248541     3.171354
 H    -2.622224    -3.136978     1.820101
 C    -3.316655    -0.775169     0.520916
 C    -4.288643    -0.592563     1.503484
 H    -3.979262    -0.287576     2.505357
 C    -3.694216    -1.149086    -0.770256
 H    -2.928452    -1.280015    -1.536265
 C    -5.632193    -0.788355     1.193808
 H    -6.386677    -0.636542     1.970716
 C    -5.040831    -1.343051    -1.062239
 H    -5.326763    -1.632937    -2.077262
 C    -6.034747    -1.171084    -0.090528
 C    -7.480823    -1.413242    -0.413711
 H    -8.144703    -0.890042     0.289321
 H    -7.724930    -2.487460    -0.358880
 H    -7.728403    -1.076591    -1.431384
 C    -0.253868    -2.541170    -1.379323
 C     0.265044    -3.694142    -1.970110
 H     0.020810    -4.663947    -1.532261
 C     0.045954    -1.288744    -1.916447
 H    -0.344051    -0.380541    -1.454563
 C     1.093466    -3.589058    -3.082572
 H     1.501220    -4.499244    -3.531545
 C     0.888011    -1.202632    -3.023589
 H     1.129477    -0.214020    -3.424719
 C     1.430054    -2.341816    -3.626613
 C     2.317916    -2.237920    -4.833078
 H     1.745306    -2.383584    -5.764553
 H     3.110958    -3.000409    -4.817592
 H     2.796846    -1.249963    -4.895409
 H     0.011701     1.911854     3.350939
 H    -0.451094     3.102993     2.083201
 H    -1.413278     1.596543     2.305077
 C     3.129452     1.672356     0.671394
 C     3.231924     1.430457    -0.698850
 H     2.369812     1.614098    -1.342519
 C     4.211422     1.412377     1.509162
 H     4.101111     1.583562     2.581421
 C     4.421333     0.928534    -1.221277
 H     4.487831     0.728164    -2.294294
 C     5.395863     0.919116     0.969984
 H     6.238340     0.711452     1.635606
 C     5.524684     0.665598    -0.401799
 C     6.812260     0.149553    -0.976019
 H     7.341912    -0.497104    -0.261200
 H     7.493266     0.978493    -1.232437
 H     6.639861    -0.428096    -1.895684
 C    -0.703352     2.635473    -0.597081
 C    -0.038458     3.858680    -0.672673
 H     1.026843     3.907014    -0.441594
 C    -2.068549     2.558199    -0.871494
 H    -2.569993     1.592249    -0.793029
 C    -0.751864     5.002201    -1.027482
 H    -0.226646     5.959869    -1.081788
 C    -2.761617     3.709714    -1.229546
 H    -3.832223     3.640305    -1.441940
 C    -2.119896     4.952208    -1.316076
 C    -2.874726     6.182491    -1.729595
 H    -3.005583     6.218833    -2.824101
 H    -2.346308     7.099211    -1.431442
 H    -3.879881     6.207715    -1.282676
