 100
scf done:    -3434.744073
 C    -0.721337    -2.143234    -2.128680
 H    -0.575560    -3.229037    -2.069470
 H    -1.729410    -1.933227    -2.513262
 C     0.367164    -1.409379    -2.833503
 H     1.214207    -2.030044    -3.158074
 H     0.036623    -0.785009    -3.679215
 H     0.864641    -0.622607    -2.136924
Co     0.012128    -1.054450    -0.677161
 C    -1.997196     1.257303    -2.179720
 C    -3.396766    -0.865047    -0.682641
 C    -2.090174     1.393262     0.795610
 C     1.241425     0.620908     2.092142
 C     3.059772    -1.223020     0.650507
 C     2.413662     1.523018    -0.462601
 P     1.678639     0.007336     0.374419
 P    -1.844998     0.199840    -0.627308
 C     0.171047    -2.449617     0.284982
 O     0.207481    -3.415467     0.932986
 H    -1.546428     0.575434    -2.922175
 C    -3.364536     1.650717    -2.725709
 H    -3.238472     2.173496    -3.688966
 H    -4.005361     0.777920    -2.913987
 H    -3.906202     2.333509    -2.055092
 C    -1.074691     2.467715    -2.060522
 H    -0.139953     2.204183    -1.547837
 H    -0.814929     2.866169    -3.054332
 H    -1.546173     3.284458    -1.494472
 H    -3.435210    -1.144829    -1.752852
 C    -4.745521    -0.225603    -0.338873
 H    -4.896130     0.720321    -0.873933
 H    -4.768968     0.016282     0.736790
 C    -5.899103    -1.179873    -0.641880
 H    -6.858812    -0.699943    -0.388122
 H    -5.928500    -1.376479    -1.729461
 C    -5.745788    -2.498169     0.105885
 H    -6.562765    -3.189927    -0.157333
 H    -5.837154    -2.307998     1.190997
 C    -4.389629    -3.131893    -0.177227
 H    -4.346257    -3.439567    -1.238178
 H    -4.260806    -4.052007     0.415656
 C    -3.239841    -2.170689     0.102699
 H    -3.201963    -1.947544     1.183115
 H    -2.279289    -2.637273    -0.143371
 H    -1.111299     1.910167     0.815909
 C    -2.221066     0.614662     2.109478
 H    -1.472116    -0.190382     2.146884
 H    -3.202871     0.113141     2.130926
 C    -2.113789     1.531230     3.323363
 H    -2.242154     0.948400     4.250041
 H    -1.097085     1.962804     3.366966
 C    -3.132735     2.663046     3.256297
 H    -3.008381     3.346593     4.111926
 H    -4.149815     2.239304     3.342651
 C    -3.023557     3.426945     1.941698
 H    -2.046094     3.942057     1.899769
 H    -3.791507     4.216184     1.891112
 C    -3.151007     2.497071     0.736145
 H    -4.158605     2.056905     0.731626
 H    -3.062741     3.080829    -0.190325
 H     0.250651     1.050769     1.891348
 C     1.032278    -0.548288     3.051344
 H     0.517257    -0.195933     3.959537
 H     0.424056    -1.349313     2.609309
 H     1.987456    -0.992211     3.369739
 C     2.068358     1.725171     2.740455
 H     2.132707     2.626607     2.114817
 H     1.585875     2.023160     3.686408
 H     3.090944     1.405419     2.987808
 H     2.495199    -2.034778     1.143998
 C     4.241956    -0.899985     1.567481
 H     3.895308    -0.505085     2.533287
 H     4.877822    -0.121773     1.121102
 C     5.088909    -2.150804     1.796927
 H     5.941895    -1.912308     2.453292
 H     4.483657    -2.904271     2.332668
 C     5.579060    -2.742820     0.480358
 H     6.163957    -3.658734     0.664165
 H     6.268826    -2.025824    -0.001941
 C     4.417402    -3.031940    -0.463275
 H     3.788656    -3.833630    -0.036554
 H     4.789492    -3.409006    -1.429953
 C     3.548551    -1.798033    -0.680729
 H     4.129197    -1.031287    -1.225263
 H     2.675221    -2.046811    -1.302616
 H     1.706948     2.318336    -0.149329
 C     2.364248     1.460907    -1.993286
 H     1.364013     1.166971    -2.333115
 H     3.053679     0.675285    -2.348159
 C     2.740756     2.798486    -2.622945
 H     2.710613     2.715696    -3.721665
 H     1.974267     3.545941    -2.348012
 C     4.107300     3.286467    -2.160443
 H     4.324080     4.283272    -2.577537
 H     4.886361     2.608490    -2.553666
 C     4.192180     3.308247    -0.640087
 H     3.504978     4.077569    -0.242540
 H     5.204195     3.598567    -0.313806
 C     3.824039     1.951852    -0.044503
 H     4.541102     1.200564    -0.415410
 H     3.936987     1.976620     1.045411
