  66
scf done:    -2889.603438
 C     0.913377    -2.641331     0.778912
 H     0.787097    -3.578538     0.222948
 H     1.936944    -2.577159     1.168607
 C    -0.152360    -2.373202     1.788208
 H    -0.944503    -3.133517     1.843573
 H     0.219870    -2.160740     2.801733
 H    -0.745820    -1.392609     1.545894
Co     0.062663    -1.056255     0.032134
 C     1.509285     1.620362     1.851000
 C     3.315521    -0.365137     0.907785
 C     2.091489     1.446178    -0.946304
 C    -1.418038     1.522310    -1.725028
 C    -3.109396    -0.684132    -0.935464
 C    -2.242822     1.222276     1.069720
 P    -1.619187     0.257464    -0.381917
 P     1.661594     0.359143     0.492328
 C     0.029348    -1.735333    -1.528971
 O     0.093802    -2.138589    -2.616463
 H     0.762399     2.357835     1.508776
 C     1.075211     1.004275     3.171608
 H     1.825366     0.292790     3.551099
 H     0.130956     0.451398     3.053805
 H     2.458274     2.169016     1.970234
 H     0.927632     1.770880     3.948072
 H     4.005883     0.436134     1.222923
 H     3.163946    -1.007694     1.792016
 C     3.915653    -1.184540    -0.228084
 H     4.191222    -0.512392    -1.058566
 H     3.140036    -1.855712    -0.632014
 C     5.133690    -1.988247     0.198760
 H     5.929172    -1.336489     0.595327
 H     4.873941    -2.710269     0.989767
 H     5.556795    -2.556951    -0.643356
 H     2.202187     0.764329    -1.806404
 H     1.185449     2.034669    -1.160142
 C     3.294473     2.373297    -0.836083
 H     4.203410     1.786699    -0.622892
 H     3.166806     3.054294     0.022029
 C     3.511205     3.192047    -2.100600
 H     3.678285     2.539499    -2.972444
 H     2.633753     3.819838    -2.325142
 H     4.383234     3.857706    -2.009239
 H    -0.651989     1.102548    -2.395368
 C    -2.636170     1.944218    -2.534503
 H    -3.438554     2.360680    -1.909508
 H    -3.058417     1.099574    -3.097524
 H    -0.949097     2.396341    -1.241983
 H    -2.355350     2.715176    -3.269044
 H    -3.969942    -0.009710    -1.077940
 H    -2.845519    -1.086013    -1.929071
 C    -3.466544    -1.832629    -0.002925
 H    -3.714348    -1.438496     0.998780
 H    -2.565931    -2.454621     0.127509
 C    -4.620674    -2.677584    -0.517374
 H    -5.537167    -2.078126    -0.640686
 H    -4.380081    -3.118891    -1.497618
 H    -4.852897    -3.503821     0.171802
 H    -2.424731     0.469579     1.857276
 H    -1.376135     1.803250     1.426575
 C    -3.457611     2.127176     0.919299
 H    -4.303770     1.556096     0.501504
 H    -3.237187     2.923529     0.189531
 C    -3.875759     2.757418     2.239910
 H    -4.141101     1.987332     2.981825
 H    -3.059526     3.359760     2.669944
 H    -4.748303     3.416775     2.116110
