 100
scf done:    -4131.320349
 C    -1.574092    -2.935594    -1.193039
 H    -2.318525    -3.294626    -1.914302
 H    -0.666651    -3.550623    -1.248797
 C    -2.104933    -2.706158     0.178052
 H    -3.192347    -2.822490     0.281209
 H    -1.586050    -3.271808     0.967317
 H    -1.887168    -1.612305     0.554212
Co    -1.400365    -1.005131    -1.013133
 C     1.717959    -0.899986     0.805391
 C     1.619539    -2.169215    -1.780599
 C     1.494358     0.728708    -1.581830
 C    -1.643508     2.448887    -0.911727
 C    -4.113754     0.992704    -1.079487
 C    -2.753792     1.069612     1.398127
 P    -2.373085     0.829911    -0.408925
 P     0.778423    -0.821573    -0.782034
 C    -1.802933    -0.803699    -2.644566
 O    -2.018590    -0.669968    -3.779090
 H     2.793974    -0.753340     0.616462
 H     1.390931    -0.032047     1.400860
 C     1.470660    -2.177614     1.593058
 H     0.407674    -2.222288     1.881725
 H     1.642728    -3.068192     0.962232
 C     2.348015    -2.275387     2.833315
 H     2.264095    -1.342632     3.415586
 H     3.408579    -2.329264     2.525840
 C     2.018744    -3.460076     3.729261
 H     0.947589    -3.420087     3.999234
 H     2.141492    -4.397991     3.158920
 C     2.861906    -3.505868     4.993201
 H     2.601168    -4.365580     5.628816
 H     2.725130    -2.590809     5.591958
 H     3.934823    -3.581570     4.754201
 H     1.401268    -3.105090    -1.243667
 H     1.038443    -2.215342    -2.713583
 C     3.080349    -2.046788    -2.066161
 C     3.525494    -1.589224    -3.314735
 H     2.792190    -1.356815    -4.091762
 C     4.051036    -2.372191    -1.106728
 H     3.740416    -2.763682    -0.135726
 C     4.881493    -1.431909    -3.594815
 H     5.228507    -1.077811    -4.567173
 C     5.409389    -2.216269    -1.365532
 H     6.165651    -2.464575    -0.618753
 C     5.809627    -1.739631    -2.608315
 F     7.109208    -1.587152    -2.861765
 H     1.840950     0.427052    -2.580914
 H     0.639857     1.396506    -1.739807
 C     2.585680     1.439958    -0.839371
 C     2.276757     2.339855     0.189047
 H     1.231315     2.537387     0.434418
 C     3.938425     1.204559    -1.115339
 H     4.211947     0.511268    -1.911730
 C     3.270662     2.978960     0.924168
 H     3.031700     3.680407     1.725711
 C     4.947685     1.833690    -0.390986
 H     6.001483     1.648557    -0.607117
 C     4.601103     2.713708     0.625632
 F     5.560573     3.319290     1.325958
 H    -0.652615     2.478093    -0.431569
 H    -1.441008     2.350054    -1.992075
 C    -2.399839     3.737953    -0.629718
 H    -3.344143     3.755981    -1.199287
 H    -2.689849     3.789605     0.434676
 C    -1.582220     4.976197    -0.975975
 H    -1.285235     4.930907    -2.039212
 H    -0.635402     4.958356    -0.404951
 C    -2.310991     6.285110    -0.707099
 H    -3.253965     6.298088    -1.281863
 H    -2.609840     6.321091     0.355811
 C    -1.485595     7.514929    -1.048754
 H    -2.037642     8.444396    -0.843662
 H    -1.203829     7.523283    -2.113839
 H    -0.552820     7.545589    -0.462996
 H    -4.588719     1.893615    -0.660869
 H    -3.994912     1.143083    -2.164115
 C    -4.935494    -0.227104    -0.795589
 C    -4.887527    -1.340602    -1.647079
 H    -4.308320    -1.288292    -2.569630
 C    -5.718749    -0.315047     0.361982
 H    -5.796615     0.549033     1.027488
 C    -5.577904    -2.510241    -1.342440
 H    -5.546929    -3.378335    -2.003294
 C    -6.414565    -1.479238     0.683688
 H    -7.028923    -1.550701     1.582905
 C    -6.326101    -2.568878    -0.172460
 F    -6.985481    -3.687989     0.126116
 H    -3.271888     2.034314     1.521058
 H    -3.485159     0.281986     1.633167
 C    -1.584381     0.967106     2.325823
 C    -1.362473    -0.203529     3.061813
 H    -2.053572    -1.043270     2.954014
 C    -0.695101     2.035127     2.504217
 H    -0.860693     2.971694     1.965269
 C    -0.292458    -0.314755     3.943659
 H    -0.123099    -1.222058     4.525687
 C     0.390764     1.937230     3.371179
 H     1.091867     2.761672     3.510350
 C     0.578683     0.757529     4.079474
 F     1.621161     0.647617     4.904223
