  76
scf done:    -3420.276471
 C    -0.543785    -2.489338    -1.958993
 H    -0.442195    -3.573479    -1.821577
 H    -1.502280    -2.272313    -2.451831
 C     0.641072    -1.830880    -2.584514
 H     1.507278    -2.486927    -2.744495
 H     0.421059    -1.276372    -3.509768
 H     1.063821    -0.974220    -1.914520
Co     0.075338    -1.339471    -0.511402
 C    -2.139923     0.612892    -2.277621
 C    -3.244820    -0.928384    -0.090367
 C    -1.816217     1.357950     0.594095
 C     1.587763     0.285338     2.264915
 C     3.298037    -0.827148     0.204471
 C     1.809552     1.542232    -0.349366
 P     1.617042    -0.104682     0.440089
 P    -1.687483    -0.053321    -0.581828
 C     0.036679    -2.653315     0.580993
 O    -0.129138    -3.554392     1.292794
 H    -2.153296    -0.335986    -2.844156
 C    -3.506383     1.259285    -2.461118
 H    -3.647333     1.533387    -3.519807
 H    -4.320475     0.576093    -2.183702
 H    -3.624824     2.178145    -1.867924
 C    -0.999548     1.451085    -2.850453
 H    -0.028118     0.967771    -2.683591
 H    -1.135060     1.589738    -3.935044
 H    -0.933516     2.451669    -2.399088
 C    -3.301874    -2.325385    -0.112015
 C    -4.382510    -0.217625     0.322147
 C    -5.598257    -2.280299     0.640724
 C    -5.549102    -0.886710     0.682130
 C    -4.471044    -2.996278     0.245717
 H    -2.411879    -2.887697    -0.393974
 H    -4.492652    -4.088605     0.226401
 H    -6.512219    -2.806277     0.927690
 H    -6.423812    -0.315593     1.003299
 H    -4.352266     0.872805     0.377936
 C    -1.932951     2.708738     0.251188
 C    -1.764279     1.021331     1.956901
 C    -1.930138     3.347831     2.584850
 C    -1.821285     2.001720     2.941976
 C    -1.990888     3.694679     1.238030
 H    -1.970390     3.010696    -0.794265
 H    -2.081656     4.743791     0.945347
 H    -1.974616     4.120324     3.356168
 H    -1.780554     1.714402     3.995602
 H    -1.679462    -0.031885     2.240853
 H     0.684130     0.907864     2.367826
 C     1.379247    -0.987824     3.075022
 H     1.378042    -0.747478     4.150068
 H     0.430341    -1.484300     2.836345
 H     2.189061    -1.714119     2.899101
 C     2.792667     1.069175     2.767227
 H     2.989092     1.973880     2.173940
 H     2.618564     1.384040     3.808831
 H     3.701754     0.449385     2.756822
 C     3.415590    -2.211908     0.039602
 C     4.463007    -0.045560     0.203798
 C     5.819802    -2.022896    -0.094874
 C     5.713367    -0.639601     0.053854
 C     4.668802    -2.807234    -0.101286
 H     2.505901    -2.816580     0.013989
 H     4.742317    -3.890444    -0.224548
 H     6.802068    -2.487150    -0.212467
 H     6.611666    -0.017282     0.051702
 H     4.391877     1.039002     0.307229
 C     2.405904     1.625652    -1.617277
 C     1.268975     2.704219     0.211676
 C     1.918594     3.988009    -1.732556
 C     1.323650     3.916716    -0.475759
 C     2.462990     2.835429    -2.301328
 H     2.836210     0.729705    -2.073214
 H     2.933854     2.878953    -3.286382
 H     1.961243     4.938887    -2.268924
 H     0.890821     4.810215    -0.019303
 H     0.786937     2.675480     1.190280
