  68
scf done:    -3563.947398
 C     0.508706    -2.325908     2.598982
 H     0.371605    -3.403621     2.740244
 H     1.548144    -2.058980     2.832910
 C    -0.537897    -1.456648     3.211960
 H    -1.325326    -1.996479     3.754999
 H    -0.150611    -0.638182     3.836310
 H    -1.148803    -0.852695     2.414991
Co    -0.357281    -1.561368     1.026029
 C     2.208838     0.593092     1.678664
 O     2.639922    -1.734542     0.336816
 O     1.526220     0.202170    -0.926661
 C    -1.425343    -0.581203    -2.042032
 O    -3.244847    -0.926711    -0.063891
 O    -1.704805     1.163658    -0.110894
 P    -1.641237    -0.512021    -0.251158
 P     1.425766    -0.605483     0.546160
 C    -0.702265    -3.117053     0.350938
 O    -0.825792    -4.144291    -0.157734
 H     1.560403     1.479591     1.733782
 H     2.235550     0.126050     2.673978
 H     3.223616     0.896602     1.390469
 C     3.864835    -1.470868    -0.197956
 C     4.941107    -1.151328     0.632751
 H     4.786908    -1.119838     1.712934
 C     4.042828    -1.550982    -1.581309
 H     3.185392    -1.805660    -2.205543
 C     6.190366    -0.887684     0.072403
 H     7.030846    -0.636023     0.723750
 C     5.294582    -1.288867    -2.130875
 H     5.429525    -1.345361    -3.213568
 C     6.370195    -0.948833    -1.309202
 H     7.349632    -0.739978    -1.744875
 C     1.981331     1.459742    -1.211809
 C     3.336615     1.793544    -1.147063
 H     4.069250     1.046311    -0.842013
 C     1.047935     2.406653    -1.643336
 H    -0.005031     2.124086    -1.682789
 C     3.744246     3.080149    -1.495502
 H     4.805846     3.333241    -1.442119
 C     1.468983     3.686868    -1.995517
 H     0.732348     4.420595    -2.332128
 C     2.817980     4.032081    -1.918063
 H     3.146668     5.036697    -2.192799
 H    -0.380468    -0.321645    -2.257905
 H    -1.612640    -1.615612    -2.364004
 H    -2.113501     0.101219    -2.559180
 C    -4.246390    -0.601014    -0.941512
 C    -4.860357    -1.635883    -1.647891
 H    -4.506278    -2.657142    -1.493382
 C    -4.671535     0.719218    -1.103156
 H    -4.181342     1.516063    -0.542852
 C    -5.904995    -1.347224    -2.522380
 H    -6.386331    -2.158773    -3.073343
 C    -5.715670     0.995346    -1.984373
 H    -6.049646     2.027926    -2.111646
 C    -6.334881    -0.031588    -2.695729
 H    -7.153657     0.192624    -3.382814
 C    -1.705854     1.757509     1.121564
 C    -2.579965     1.340291     2.130263
 H    -3.278665     0.524503     1.935551
 C    -0.824539     2.816479     1.348135
 H    -0.155406     3.131001     0.545808
 C    -2.548426     1.974515     3.371365
 H    -3.230005     1.642166     4.158046
 C    -0.809687     3.446656     2.590320
 H    -0.116965     4.274056     2.762351
 C    -1.664393     3.025404     3.609209
 H    -1.646074     3.519690     4.582826
