  82
scf done:    -3498.863702
 C    -0.839586    -1.407021    -2.806068
 H    -0.867147    -2.454115    -3.131755
 H    -1.786134    -0.907509    -3.050618
 C     0.390543    -0.663552    -3.204424
 H     1.171120    -1.269931    -3.683974
 H     0.204328     0.238064    -3.807512
 H     0.934075    -0.196970    -2.278318
Co    -0.038403    -1.027660    -1.075053
 C    -1.452450     2.170029    -0.601314
 C    -3.299459    -0.039186    -0.869353
 C    -1.781843     0.219408     1.478916
 C     1.589462    -1.293449     1.941893
 C     3.229503    -0.920911    -0.407691
 C     1.762387     1.295826     0.621846
 P     1.576427    -0.496152     0.279472
 P    -1.568052     0.343224    -0.349080
 C    -0.179358    -2.643973    -0.555826
 O    -0.404264    -3.705548    -0.137078
 H    -0.565472     2.491004    -0.034343
 C    -1.284054     2.529877    -2.068470
 H    -2.139602     2.193284    -2.674922
 H    -0.379758     2.056894    -2.478629
 H    -2.315579     2.690082    -0.156316
 H    -1.185686     3.618522    -2.200154
 C    -3.630825    -1.378382    -1.102861
 H    -2.852007    -2.141317    -1.040035
 C    -4.299692     0.931870    -0.985412
 H    -4.067732     1.983599    -0.801541
 C    -4.939503    -1.729019    -1.424788
 H    -5.192050    -2.778343    -1.596486
 C    -5.614347     0.598288    -1.326942
 C    -6.665391     1.660220    -1.478731
 H    -6.349244     2.608849    -1.021865
 H    -6.877236     1.859019    -2.542536
 H    -7.614416     1.356653    -1.011412
 C    -5.922809    -0.750285    -1.538961
 H    -6.946566    -1.034309    -1.799319
 C    -1.774938     1.317124     2.344848
 H    -1.669540     2.331687     1.959330
 C    -1.912251    -1.065774     2.021379
 H    -1.899455    -1.931369     1.354332
 C    -1.878042     1.119238     3.722177
 H    -1.858594     1.980914     4.394717
 C    -2.029795    -1.279244     3.396351
 C    -2.187782    -2.669919     3.938818
 H    -3.253895    -2.939790     4.021152
 H    -1.713748    -3.410786     3.278800
 H    -1.747656    -2.765912     4.942207
 C    -2.000367    -0.164596     4.245276
 H    -2.073721    -0.307782     5.327044
 H     1.384304    -2.355170     1.731148
 C     2.836495    -1.139243     2.794500
 H     3.080528    -0.083512     2.986537
 H     3.711433    -1.598802     2.312278
 H     0.687017    -0.922703     2.454619
 H     2.694144    -1.629980     3.769886
 C     3.314718    -1.982095    -1.312912
 H     2.396741    -2.495731    -1.610985
 C     4.396305    -0.238050    -0.040116
 H     4.332280     0.603192     0.655334
 C     4.554697    -2.357141    -1.828458
 H     4.619889    -3.186907    -2.536625
 C     5.644388    -0.599347    -0.553365
 C     6.890677     0.131183    -0.143694
 H     7.536094    -0.506192     0.482591
 H     7.486299     0.431182    -1.019683
 H     6.654656     1.036077     0.433569
 C     5.706158    -1.671850    -1.453952
 H     6.673491    -1.967299    -1.870709
 C     1.425845     1.876248     1.848132
 H     1.131550     1.256165     2.695637
 C     2.113975     2.129985    -0.448432
 H     2.374661     1.680310    -1.412138
 C     1.439180     3.264389     1.986839
 H     1.173104     3.712860     2.947285
 C     2.128859     3.520458    -0.326241
 C     2.460333     4.387726    -1.505720
 H     1.569217     4.544511    -2.136414
 H     2.820708     5.377934    -1.192494
 H     3.230211     3.925872    -2.140884
 C     1.783546     4.079006     0.912446
 H     1.787270     5.165851     1.032263
