  76
scf done:    -3817.066282
 C    -0.423848    -1.895886    -3.166657
 H    -0.240569    -2.870680    -3.634437
 H    -1.458151    -1.584658    -3.373897
 C     0.606582    -0.854655    -3.462910
 H     1.408162    -1.178835    -4.141589
 H     0.201300     0.106876    -3.812179
 H     1.201757    -0.543903    -2.508677
Co     0.346346    -1.599878    -1.403218
 C    -2.377740     0.527006    -1.649784
 C    -2.770808    -2.164627    -0.683760
 C    -1.681830    -0.122722     1.086130
 C     1.735163    -2.054456     1.643032
 C     3.527259    -1.420541    -0.553349
 C     2.021300     0.623167     0.848530
 P     1.817930    -1.068212     0.100853
 P    -1.514443    -0.776069    -0.675848
 C     0.605006    -3.274582    -1.163868
 O     0.664859    -4.411528    -0.940951
 H    -1.792658     1.456322    -1.600883
 H    -2.427261     0.203406    -2.699924
 H    -3.389382     0.746673    -1.282604
 H    -2.828238    -2.472118    -1.738926
 H    -2.272961    -2.989943    -0.153036
 C    -4.123099    -1.892548    -0.109683
 C    -4.430730    -2.264067     1.206974
 H    -3.688226    -2.807230     1.797991
 C    -5.117414    -1.238470    -0.851999
 H    -4.921028    -0.967748    -1.891885
 C    -5.666566    -1.970645     1.779623
 H    -5.907649    -2.261370     2.803609
 C    -6.356601    -0.933081    -0.297055
 H    -7.131314    -0.423009    -0.872354
 C    -6.614125    -1.296893     1.019626
 F    -7.797876    -1.007138     1.557278
 H    -2.230131    -0.884870     1.658420
 H    -0.665538    -0.091269     1.499249
 C    -2.340647     1.214495     1.239465
 C    -1.596154     2.395876     1.123571
 H    -0.518344     2.345945     0.949475
 C    -3.720957     1.323081     1.452997
 H    -4.324686     0.418162     1.545503
 C    -2.201585     3.646627     1.210386
 H    -1.623648     4.567972     1.118641
 C    -4.342336     2.565610     1.544086
 H    -5.417278     2.653283     1.712179
 C    -3.573262     3.715706     1.418669
 F    -4.162080     4.908579     1.502076
 H     1.780581    -3.122209     1.385772
 H     2.542346    -1.804251     2.346737
 H     0.763911    -1.868414     2.124160
 H     3.480308    -2.471296    -0.879039
 H     3.613820    -0.815421    -1.469404
 C     4.681782    -1.173655     0.365440
 C     5.397828     0.029339     0.312080
 H     5.128915     0.778122    -0.436883
 C     5.070029    -2.128380     1.315754
 H     4.548101    -3.087542     1.359586
 C     6.450128     0.287910     1.186630
 H     7.014078     1.221649     1.144461
 C     6.119747    -1.887773     2.198134
 H     6.428681    -2.629888     2.936489
 C     6.794695    -0.675327     2.126540
 F     7.799152    -0.436985     2.967893
 H     1.138322     0.769899     1.493854
 H     2.890393     0.589065     1.524111
 C     2.155867     1.767729    -0.114847
 C     3.173337     2.717517     0.042005
 H     3.886675     2.608921     0.862988
 C     1.246561     1.944189    -1.166276
 H     0.459256     1.200567    -1.306782
 C     3.289829     3.803787    -0.822167
 H     4.079466     4.547909    -0.703193
 C     1.347702     3.022737    -2.039966
 H     0.640847     3.161751    -2.860185
 C     2.373096     3.942066    -1.857050
 F     2.478401     4.977774    -2.687215
