  74
scf done:    -4039.275595
 C    -0.407219    -3.421254    -1.130603
 H    -0.134490    -4.459869    -0.911069
 H    -1.500063    -3.316352    -1.102813
 C     0.236551    -2.834909    -2.344838
 H     0.863846    -3.534414    -2.914266
 H    -0.458930    -2.321482    -3.024704
 H     1.011174    -1.997761    -2.084060
Co     0.729321    -2.034920    -0.356484
 C    -2.062058    -2.075915     1.519557
 O    -0.706264     0.255835     1.306654
 O    -2.116674    -0.565689    -0.719714
 C     2.333409     0.544533     1.298753
 O     3.665025    -1.046750    -0.465683
 O     2.174407     0.719700    -1.378336
 P     2.136895    -0.475548    -0.198641
 P    -0.980253    -1.124200     0.386333
 C     1.624247    -3.161276     0.611303
 O     2.139695    -3.895711     1.334966
 H    -2.509169    -2.884024     0.919379
 C    -1.302585    -2.640924     2.709094
 H    -0.823461    -1.843910     3.298692
 H    -0.509414    -3.330769     2.388605
 H    -2.895854    -1.431240     1.839596
 H    -1.982218    -3.189876     3.377789
 C    -1.648429     1.159710     1.704105
 C    -2.314487     1.017090     2.922788
 H    -2.085415     0.167214     3.567410
 C    -1.911712     2.260433     0.887478
 H    -1.377161     2.351247    -0.056540
 C    -3.261940     1.962792     3.311209
 H    -3.798238     1.874704     4.257676
 C    -2.853948     3.209097     1.270461
 H    -3.077133     4.070320     0.638028
 C    -3.524033     3.044602     2.478180
 F    -4.431291     3.946150     2.849941
 C    -3.458902    -0.817289    -0.786574
 C    -4.378722    -0.076757    -0.040075
 H    -4.024340     0.703946     0.632645
 C    -3.912806    -1.800872    -1.668937
 H    -3.183563    -2.359617    -2.258968
 C    -5.742253    -0.330134    -0.164962
 H    -6.476478     0.237539     0.409374
 C    -5.274866    -2.056615    -1.798663
 H    -5.648493    -2.820416    -2.482894
 C    -6.175447    -1.318747    -1.039833
 F    -7.480185    -1.561634    -1.157423
 H     1.484266     1.244676     1.286244
 C     2.333680    -0.276247     2.578112
 H     3.153401    -1.009533     2.593888
 H     1.388464    -0.826875     2.682179
 H     3.258632     1.131045     1.178299
 H     2.447648     0.376470     3.456054
 C     4.827234    -0.355214    -0.242423
 C     5.668971    -0.797861     0.778997
 H     5.366425    -1.662293     1.373036
 C     5.195182     0.731830    -1.038049
 H     4.529036     1.053290    -1.838436
 C     6.876610    -0.148822     1.018510
 H     7.553082    -0.477039     1.809593
 C     6.400767     1.386311    -0.796760
 H     6.714471     2.238395    -1.402595
 C     7.225850     0.940427     0.228762
 F     8.379231     1.567756     0.457154
 C     1.142395     1.567758    -1.662766
 C     1.295095     2.926416    -1.375673
 H     2.209846     3.263216    -0.884472
 C    -0.018617     1.111963    -2.289515
 H    -0.140586     0.047540    -2.482631
 C     0.298498     3.832331    -1.729231
 H     0.397355     4.898796    -1.519615
 C    -1.022538     2.011906    -2.636018
 H    -1.945789     1.672251    -3.107846
 C    -0.849753     3.362098    -2.356748
 F    -1.815169     4.225064    -2.676874
