  52
scf done:    -2954.674484
 C    -0.995413    -2.524158    -0.889516
 H    -0.766878    -3.530996    -0.520634
 H    -2.084600    -2.379488    -0.919786
 C    -0.267307    -2.130315    -2.131213
 H     0.413182    -2.895465    -2.529753
 H    -0.910274    -1.754803    -2.941345
 H     0.449538    -1.215944    -1.956663
Co     0.147700    -1.073951    -0.241748
 C    -2.677337     0.568754    -1.278860
 O    -2.742409    -0.639427     1.061716
 O    -1.324417     1.490135     0.955600
 C     1.750331     1.600219     1.290495
 O     3.184340    -0.034276    -0.227011
 O     1.576684     1.645630    -1.314508
 P     1.612453     0.471107    -0.142286
 P    -1.578390     0.076861     0.127640
 C     0.836369    -2.078723     0.973882
 O     1.187972    -2.743467     1.852792
 H    -2.633303    -0.331909    -1.919394
 C    -4.142094     0.841868    -0.963804
 H    -4.712545     0.957656    -1.899917
 H    -4.585484     0.021035    -0.384796
 H    -4.270977     1.769870    -0.387986
 C    -1.998788     1.713130    -2.025665
 H    -0.930134     1.508674    -2.187384
 H    -2.475641     1.879946    -3.004020
 H    -2.061403     2.651846    -1.454061
 C    -2.365236    -1.453216     2.149328
 H    -1.737348    -0.906853     2.873558
 H    -3.289309    -1.770264     2.652970
 H    -1.809419    -2.341547     1.811777
 C    -2.340942     2.252441     1.562799
 H    -1.898874     2.778086     2.422389
 H    -2.744906     3.006054     0.865999
 H    -3.165797     1.616289     1.919510
 H     0.850635     2.225864     1.176838
 C     1.634703     0.814827     2.590458
 H     1.702751     1.497691     3.451677
 H     0.674370     0.283857     2.647088
 H     2.441952     0.071476     2.684982
 C     3.001452     2.465957     1.223377
 H     3.053538     3.015527     0.273326
 H     2.992907     3.197798     2.046718
 H     3.909700     1.853054     1.315272
 C     3.561888    -1.243703    -0.838150
 H     2.690676    -1.907100    -0.974343
 H     4.027761    -1.050128    -1.819069
 H     4.294215    -1.753254    -0.194392
 C     1.867422     1.311244    -2.644038
 H     2.938264     1.079127    -2.775766
 H     1.274760     0.445709    -2.995884
 H     1.616167     2.176646    -3.273287
