  64
scf done:    -3111.850617
 C     0.670697    -2.540946     1.678518
 H     0.682656    -3.594304     1.373200
 H     1.597648    -2.305215     2.219546
 C    -0.589367    -2.097942     2.348827
 H    -1.348909    -2.883596     2.467025
 H    -0.439804    -1.583469     3.309394
 H    -1.162370    -1.280281     1.732732
Co    -0.048725    -1.271271     0.383254
 C     1.880414     0.610026     2.497280
 O     3.055131    -0.405400     0.447358
 O     1.423835     1.526604    -0.031077
 C    -0.847472     0.743844    -2.194359
 O    -2.856968    -0.396776    -1.042528
 O    -1.689894     1.397612     0.359363
 P    -1.345949     0.091440    -0.580196
 P     1.512342     0.086141     0.788215
 C     0.049221    -2.378203    -0.929895
 O     0.255391    -3.069788    -1.835458
 H     1.046835     1.229438     2.857825
 H     1.957744    -0.285094     3.130901
 H     2.826573     1.165570     2.563002
 C     3.337438    -1.133198    -0.750933
 H     2.462020    -1.067497    -1.422504
 C     3.581242    -2.588558    -0.409982
 H     2.688587    -3.024987     0.054843
 H     4.424764    -2.676301     0.292436
 H     3.815953    -3.165263    -1.317077
 C     4.534720    -0.484204    -1.416727
 H     4.330126     0.565841    -1.668477
 H     5.404857    -0.511598    -0.742633
 H     4.797858    -1.016160    -2.343243
 C     2.466543     2.499109    -0.062642
 H     3.406935     2.018457     0.261414
 C     2.133856     3.654223     0.864443
 H     2.024219     3.318896     1.904328
 H     1.189612     4.126920     0.556387
 H     2.928553     4.415092     0.832960
 C     2.618923     2.953708    -1.501725
 H     2.823606     2.097975    -2.160704
 H     1.692956     3.438572    -1.848782
 H     3.443456     3.675538    -1.601440
 H     0.114334     1.255162    -2.060817
 H    -0.716541    -0.113429    -2.869677
 H    -1.601221     1.422298    -2.617214
 C    -3.705463    -1.076210    -0.114970
 H    -3.440847    -0.753922     0.911240
 C    -3.510476    -2.575188    -0.228337
 H    -2.467048    -2.834013    -0.000406
 H    -3.733848    -2.910466    -1.252602
 H    -4.172669    -3.108979     0.470097
 C    -5.125171    -0.638924    -0.411695
 H    -5.230114     0.451201    -0.313141
 H    -5.396360    -0.916788    -1.441664
 H    -5.834052    -1.122114     0.277124
 C    -2.552654     2.457420    -0.051404
 H    -3.119014     2.133546    -0.943587
 C    -1.717449     3.677787    -0.387283
 H    -0.993837     3.454024    -1.183136
 H    -1.154351     4.001724     0.500727
 H    -2.356396     4.509951    -0.719543
 C    -3.531497     2.713990     1.077112
 H    -4.118330     1.810640     1.296393
 H    -2.988016     2.998568     1.991119
 H    -4.226859     3.526261     0.817167
