 100
scf done:    -3734.558020
 C     1.692400    -1.030646    -2.926465
 H     1.649230    -0.707205    -3.973848
 H     2.736154    -1.108494    -2.594968
 C     0.839160    -2.210748    -2.603801
 H     0.194930    -2.561167    -3.421946
 H     1.383960    -3.064484    -2.172642
 H     0.081648    -1.976378    -1.742859
Co     0.408417    -0.252858    -1.689585
 C     2.112580    -0.954693     1.307147
 C     3.507498     0.695557    -0.610587
 C     1.296045     1.743194     0.794150
 C    -2.072729     1.501750    -0.111851
 C    -2.851138    -0.980526    -1.398108
 C    -1.411637    -1.078207     1.047572
 P    -1.440659    -0.169603    -0.544877
 P     1.806636     0.210120    -0.090318
 C     0.049285     1.050250    -2.729919
 O    -0.081601     2.016167    -3.363376
 H     2.839396    -0.546235     2.028908
 H     1.151818    -1.035976     1.839045
 C     2.521923    -2.336332     0.821508
 H     1.754414    -2.692266     0.113943
 H     3.461828    -2.278676     0.244266
 C     2.670147    -3.340486     1.954457
 H     1.753326    -3.315898     2.570186
 H     3.490953    -3.025225     2.624345
 C     2.916554    -4.765400     1.481390
 H     2.094527    -5.063777     0.806181
 H     3.832182    -4.793241     0.864599
 C     3.031783    -5.766002     2.619832
 H     3.202175    -6.788813     2.250875
 H     2.113638    -5.781607     3.230142
 H     3.866628    -5.511795     3.292723
 C     3.665235     1.332028    -1.848991
 H     2.792753     1.463964    -2.493105
 C     4.643888     0.507021     0.181351
 H     4.566036     0.019490     1.155267
 C     4.912933     1.779909    -2.267635
 H     5.004787     2.281080    -3.235611
 C     5.895510     0.942531    -0.249906
 H     6.768912     0.780269     0.388311
 C     6.054487     1.589266    -1.479006
 C     7.403297     2.043456    -1.954687
 H     8.139401     2.048368    -1.138360
 H     7.788023     1.377857    -2.745205
 H     7.357728     3.057165    -2.380934
 C     1.009177     1.796531     2.160624
 H     1.170933     0.924202     2.794964
 C     1.084505     2.902881     0.031400
 H     1.288767     2.890918    -1.041440
 C     0.486405     2.956584     2.736500
 H     0.256181     2.965641     3.806039
 C     0.582374     4.059062     0.612720
 H     0.421056     4.943865    -0.009623
 C     0.252311     4.104042     1.975599
 C    -0.351292     5.337646     2.579752
 H     0.201114     6.242304     2.283141
 H    -1.393130     5.471260     2.243050
 H    -0.360422     5.287523     3.677750
 H    -1.321854     1.927389     0.572772
 H    -1.973290     2.086185    -1.040776
 C    -3.473383     1.639215     0.462729
 H    -4.218925     1.356281    -0.298780
 H    -3.619668     0.935859     1.300426
 C    -3.740972     3.057114     0.950864
 H    -3.579969     3.765500     0.117926
 H    -2.985337     3.322589     1.713429
 C    -5.134215     3.259282     1.528015
 H    -5.885670     3.001277     0.761027
 H    -5.291692     2.541015     2.352376
 C    -5.376044     4.674252     2.028432
 H    -6.387785     4.793854     2.444838
 H    -5.261899     5.409581     1.215629
 H    -4.656952     4.945792     2.818547
 C    -2.817041    -1.095969    -2.790225
 H    -1.935287    -0.730244    -3.323902
 C    -3.968666    -1.474484    -0.710907
 H    -4.008231    -1.413430     0.379392
 C    -3.881516    -1.672523    -3.480508
 H    -3.836829    -1.748639    -4.570556
 C    -5.024785    -2.053045    -1.405109
 H    -5.888784    -2.431546    -0.851042
 C    -5.002290    -2.161404    -2.802986
 C    -6.139500    -2.807297    -3.538630
 H    -7.111526    -2.434914    -3.180816
 H    -6.078575    -2.620803    -4.619924
 H    -6.136987    -3.899557    -3.388180
 C    -1.433732    -0.454916     2.297300
 H    -1.577287     0.623661     2.373287
 C    -1.215899    -2.467967     1.005470
 H    -1.199230    -2.981315     0.039580
 C    -1.241977    -1.195048     3.466049
 H    -1.252958    -0.681206     4.431448
 C    -1.035123    -3.200374     2.170011
 H    -0.881090    -4.281523     2.106688
 C    -1.031661    -2.574893     3.426710
 C    -0.792420    -3.372128     4.674515
 H    -1.491322    -4.219802     4.748649
 H     0.226566    -3.793419     4.682781
 H    -0.907309    -2.756063     5.577061
