  90
scf done:    -3203.862163
 C    -0.694250     2.676916     0.856064
 H    -0.606378     3.606292     0.279816
 H    -1.656629     2.657986     1.382412
 C     0.487904     2.368151     1.713568
 H     1.309598     3.096495     1.655525
 H     0.248778     2.172670     2.769922
 H     1.003718     1.365666     1.399020
Co    -0.017924     1.056811     0.013275
 C    -1.253317    -1.640978     1.949360
 C    -3.096517     0.470592     1.442571
 C    -2.323472    -1.265000    -0.691182
 C     1.100935    -1.650484    -1.825679
 C     2.947321     0.539723    -1.431322
 C     2.375710    -1.217080     0.786209
 P     1.540895    -0.325960    -0.604931
 P    -1.581059    -0.300360     0.704857
 C    -0.176958     1.726304    -1.544086
 O    -0.378264     2.126244    -2.616066
 H    -0.573992    -2.360752     1.459819
 C    -0.625610    -1.103150     3.225985
 H    -1.314214    -0.429835     3.760029
 H     0.285704    -0.527442     3.002860
 H    -2.182692    -2.190097     2.173746
 H    -0.355697    -1.914353     3.919869
 H    -2.754510     1.099573     2.282393
 H    -3.733823    -0.315371     1.879563
 C    -3.862296     1.321111     0.436747
 H    -3.137154     1.895942    -0.163742
 H    -4.392773     0.664623    -0.276459
 C    -4.874873     2.287987     1.052929
 H    -4.318781     2.944683     1.749128
 C    -5.490086     3.168653    -0.027919
 H    -4.715683     3.717595    -0.585603
 H    -6.187294     3.905900     0.399901
 H    -6.054228     2.559778    -0.754449
 C    -5.954256     1.564493     1.850356
 H    -6.678546     2.275104     2.278258
 H    -5.532379     0.981092     2.682701
 H    -6.514917     0.867804     1.203647
 H    -1.498399    -1.830202    -1.150636
 H    -2.597352    -0.499459    -1.434076
 C    -3.489093    -2.195352    -0.390477
 H    -3.150970    -2.999203     0.284922
 H    -4.282355    -1.655560     0.157016
 C    -4.118245    -2.839066    -1.631062
 H    -3.303987    -3.322582    -2.203917
 C    -5.111083    -3.921310    -1.222445
 H    -4.632269    -4.696711    -0.604000
 H    -5.553301    -4.416116    -2.101124
 H    -5.938029    -3.489944    -0.633580
 C    -4.784488    -1.810252    -2.538357
 H    -5.223413    -2.289411    -3.427109
 H    -4.077867    -1.045231    -2.892644
 H    -5.598760    -1.291031    -2.004753
 H     0.284610    -1.216767    -2.424523
 C     2.179655    -2.200658    -2.747775
 H     3.027273    -2.632914    -2.198220
 H     2.577404    -1.420228    -3.412401
 H     0.641642    -2.459276    -1.231903
 H     1.763567    -2.992319    -3.390362
 H     2.533803     0.945359    -2.370855
 H     3.733822    -0.180500    -1.703717
 C     3.494846     1.674395    -0.579547
 H     2.644623     2.315975    -0.293899
 H     3.909407     1.273042     0.364677
 C     4.569301     2.529229    -1.253409
 H     4.144096     2.902928    -2.203800
 C     4.902027     3.735228    -0.382693
 H     4.004146     4.337016    -0.172892
 H     5.643177     4.390577    -0.865966
 H     5.322741     3.414896     0.585496
 C     5.825814     1.729403    -1.579907
 H     6.592211     2.365038    -2.049966
 H     5.620798     0.897199    -2.270200
 H     6.265426     1.302902    -0.661733
 H     1.584693    -1.797149     1.288822
 H     2.637853    -0.415763     1.496544
 C     3.581667    -2.100109     0.503294
 H     3.257859    -2.982232    -0.073199
 H     4.308758    -1.567371    -0.135240
 C     4.314996    -2.582840     1.759875
 H     3.563169    -3.042243     2.429368
 C     5.338531    -3.652872     1.397459
 H     4.865516    -4.510577     0.894154
 H     5.859389    -4.031446     2.290490
 H     6.103378    -3.246345     0.714622
 C     4.979136    -1.434960     2.512975
 H     5.498758    -1.798540     3.412712
 H     4.255694    -0.672968     2.839808
 H     5.727499    -0.933705     1.875736
