 112
scf done:    -3891.684847
 C    -1.300555     3.284257    -2.046915
 H    -1.170815     3.689443    -3.057483
 H    -2.360906     3.332501    -1.762542
 C    -0.362275     3.845292    -1.029208
 H     0.429797     4.492391    -1.430589
 H    -0.852217     4.358688    -0.186641
 H     0.191377     2.992442    -0.443037
Co    -0.232615     1.723700    -1.580247
 C    -2.771235     1.043079     0.838670
 C    -3.220133     0.518405    -1.983988
 C    -1.534027    -1.255193    -0.374573
 C     2.064165    -0.816166    -1.718277
 C     3.001645     1.935015    -1.257538
 C     1.671915     0.384444     0.946351
 P     1.582530     0.759145    -0.887696
 P    -1.857735     0.575520    -0.702219
 C     0.087489     1.368421    -3.215619
 O     0.202340     1.039861    -4.323707
 H    -3.587822     0.325568     1.022496
 H    -2.057352     0.897934     1.666724
 C    -3.286413     2.473064     0.856081
 H    -2.442545     3.169439     0.722455
 H    -3.955765     2.651037    -0.004431
 C    -4.032247     2.816634     2.137809
 H    -3.369555     2.638066     3.004132
 H    -4.878545     2.116578     2.265034
 C    -4.547327     4.248378     2.177901
 H    -3.697062     4.941385     2.047812
 H    -5.204794     4.420282     1.307083
 C    -5.293806     4.587535     3.457842
 H    -5.653540     5.627644     3.456705
 H    -4.648879     4.459326     4.342146
 H    -6.169643     3.932789     3.594523
 H    -3.575134     1.557811    -2.054302
 H    -2.688196     0.320658    -2.926171
 C    -4.356857    -0.432839    -1.803198
 C    -4.404845    -1.626034    -2.536867
 H    -3.616217    -1.841698    -3.262905
 C    -5.397205    -0.167543    -0.903760
 H    -5.392444     0.773284    -0.346757
 C    -5.456135    -2.522928    -2.363165
 H    -5.488019    -3.443732    -2.950739
 C    -6.448992    -1.064729    -0.699409
 C    -7.507691    -0.777800     0.324860
 H    -7.195028    -1.146305     1.316621
 H    -7.693346     0.301763     0.422583
 H    -8.458715    -1.270321     0.076007
 C    -6.469099    -2.248836    -1.446936
 H    -7.292607    -2.956297    -1.315892
 H    -1.849018    -1.786876    -1.285062
 H    -0.441191    -1.348844    -0.324251
 C    -2.153058    -1.870734     0.846666
 C    -1.516221    -1.770925     2.090264
 H    -0.548080    -1.271196     2.170874
 C    -3.387008    -2.530178     0.787582
 H    -3.895593    -2.620857    -0.174196
 C    -2.105071    -2.301063     3.235430
 H    -1.594220    -2.211566     4.197350
 C    -3.991019    -3.072046     1.926439
 C    -5.300169    -3.801077     1.827606
 H    -5.805597    -3.583424     0.876865
 H    -5.149196    -4.891999     1.883800
 H    -5.976178    -3.527033     2.652041
 C    -3.337194    -2.942698     3.157696
 H    -3.796627    -3.354831     4.060606
 H     1.401840    -1.586730    -1.290738
 H     1.741186    -0.704708    -2.765990
 C     3.515503    -1.273113    -1.644125
 H     4.127665    -0.651055    -2.318841
 H     3.917551    -1.117294    -0.632057
 C     3.697799    -2.737180    -2.016121
 H     3.350666    -2.910096    -3.051186
 H     3.046654    -3.351515    -1.368849
 C     5.135853    -3.212166    -1.864534
 H     5.792970    -2.596337    -2.504718
 H     5.459964    -3.021386    -0.825776
 C     5.326166    -4.682580    -2.198200
 H     6.374112    -4.996503    -2.076626
 H     5.032556    -4.899093    -3.238011
 H     4.709929    -5.320370    -1.544021
 H     3.373392     1.629102    -2.247218
 H     2.495442     2.897977    -1.411650
 C     4.121732     2.105282    -0.278344
 C     3.971817     2.979317     0.808108
 H     3.040876     3.542020     0.923347
 C     5.336174     1.428272    -0.418887
 H     5.473727     0.754575    -1.267376
 C     5.001345     3.144601     1.730089
 H     4.871792     3.826867     2.573730
 C     6.383785     1.582610     0.494611
 C     7.675285     0.844302     0.294546
 H     7.495290    -0.193800    -0.023320
 H     8.285782     1.323095    -0.488779
 H     8.275700     0.822144     1.214842
 C     6.199183     2.447223     1.578726
 H     7.004026     2.580904     2.306695
 H     1.930316     1.337772     1.431827
 H     0.621217     0.185634     1.204242
 C     2.553587    -0.726444     1.434336
 C     2.139192    -2.060200     1.333724
 H     1.145776    -2.299716     0.947777
 C     3.817209    -0.462083     1.978184
 H     4.143912     0.574474     2.083727
 C     2.987327    -3.095060     1.721555
 H     2.652432    -4.131279     1.630841
 C     4.678443    -1.487610     2.376258
 C     6.030483    -1.180156     2.952307
 H     6.186315    -0.097153     3.046749
 H     6.151828    -1.634196     3.948414
 H     6.834495    -1.581747     2.314879
 C     4.252837    -2.814176     2.226861
 H     4.914123    -3.631851     2.527260
