  60
scf done:    -2811.046980
 C     1.717056     2.752736    -0.891570
 H     1.364713     3.730482    -1.241953
 H     2.562066     2.889770    -0.204702
 C     1.948718     1.752845    -1.976180
 H     1.671040     2.088526    -2.984784
 H     2.964271     1.328697    -1.999249
 H     1.309443     0.782672    -1.816426
Co     0.370410     1.408747    -0.481513
 C     2.311552    -0.747173     1.540086
 C     2.267900     1.984464     2.298866
 C    -0.006013     0.382127     2.704977
 C    -2.650284    -0.085450    -0.064930
 C    -1.423136    -0.350228    -2.655461
 C    -0.505636    -1.959838    -0.510633
 P    -0.996366    -0.221347    -0.871521
 P     1.232844     0.760024     1.394872
 C    -0.859244     2.591287    -0.425793
 O    -1.671162     3.407321    -0.277083
 H     2.774399    -0.784667     2.542416
 H     1.650285    -1.626866     1.465808
 C     3.364183    -0.808466     0.444264
 H     2.854675    -0.716004    -0.530817
 H     4.028475     0.072066     0.512651
 C     4.206918    -2.074975     0.465478
 H     3.540949    -2.955163     0.397834
 H     4.716537    -2.162857     1.442320
 C     5.239431    -2.136258    -0.651611
 H     4.723667    -2.041591    -1.623881
 H     5.900886    -1.254624    -0.580203
 C     6.075150    -3.405849    -0.636114
 H     6.810833    -3.419515    -1.454508
 H     5.442616    -4.301983    -0.742608
 H     6.629470    -3.507421     0.310857
 H     3.200881     2.169972     1.747748
 H     1.720008     2.935965     2.357617
 H     2.516643     1.635342     3.313072
 H     0.469483     0.131115     3.666500
 H    -0.657238     1.258153     2.838645
 H    -0.635726    -0.463621     2.392314
 H    -2.451072     0.040965     1.012278
 H    -3.050658     0.887404    -0.397157
 C    -3.664720    -1.195135    -0.293788
 H    -3.832571    -1.340155    -1.375255
 H    -3.268501    -2.154300     0.082292
 C    -5.002346    -0.915644     0.379857
 H    -5.404928     0.042626     0.004841
 H    -4.840381    -0.765586     1.462840
 C    -6.033483    -2.015649     0.169916
 H    -6.188715    -2.163349    -0.913708
 H    -5.624982    -2.971118     0.544775
 C    -7.366226    -1.729907     0.842969
 H    -8.090142    -2.541291     0.673487
 H    -7.814546    -0.798662     0.461026
 H    -7.246595    -1.612758     1.932098
 H    -1.857664     0.605816    -2.980728
 H    -0.499622    -0.513439    -3.230483
 H    -2.126025    -1.169177    -2.871618
 H     0.488196    -2.143058    -0.944935
 H    -0.431643    -2.107372     0.576783
 H    -1.216397    -2.693228    -0.919952
