  60
scf done:    -2811.044547
 C    -0.707187    -2.441957    -1.066207
 H    -0.542694    -3.423902    -0.605712
 H    -1.721031    -2.393745    -1.482907
 C     0.369653    -2.012100    -2.007662
 H     1.213335    -2.710403    -2.101922
 H     0.013617    -1.735456    -3.012151
 H     0.876790    -1.015941    -1.663819
Co     0.034476    -0.901850    -0.135902
 C    -1.361061     1.973767    -1.606247
 C    -3.155042    -0.188140    -1.270157
 C    -2.231943     1.246827     1.035511
 C     1.334074     1.839712     1.589851
 C     3.045716    -0.388781     1.239536
 C     2.434507     1.320407    -1.018339
 P     1.630584     0.460479     0.411351
 P    -1.596810     0.488277    -0.530502
 C     0.058172    -1.734240     1.349546
 O    -0.012621    -2.255924     2.384650
 H    -0.586417     2.623688    -1.171435
 H    -1.002100     1.639109    -2.591416
 H    -2.278962     2.564692    -1.748213
 H    -3.820353     0.638626    -1.572848
 H    -2.854048    -0.699335    -2.201560
 C    -3.887028    -1.162419    -0.354361
 H    -4.337601    -0.605441     0.484444
 H    -3.153780    -1.848642     0.100972
 C    -4.966866    -1.955412    -1.073365
 H    -5.717927    -1.291098    -1.530843
 H    -4.535463    -2.570486    -1.879595
 H    -5.495074    -2.633148    -0.385474
 H    -2.485220     0.389988     1.682352
 H    -1.364520     1.720018     1.521027
 C    -3.392674     2.228266     0.956031
 H    -4.247766     1.758949     0.440771
 H    -3.107662     3.095394     0.336652
 C    -3.837507     2.714388     2.327914
 H    -4.167853     1.874077     2.959186
 H    -3.013652     3.217955     2.858906
 H    -4.673291     3.427196     2.255375
 H     0.841909     1.434589     2.485787
 H     2.268626     2.335727     1.890846
 H     0.664790     2.584832     1.135848
 H     3.828347     0.338505     1.516455
 H     2.628283    -0.789043     2.179650
 C     3.614839    -1.527481     0.405090
 H     4.088649    -1.119577    -0.505492
 H     2.769476    -2.147704     0.060328
 C     4.617579    -2.381671     1.163472
 H     5.473963    -1.783654     1.514913
 H     4.150744    -2.843899     2.047594
 H     5.013368    -3.192590     0.533155
 H     2.686836     0.525257    -1.741182
 H     1.634873     1.906654    -1.502199
 C     3.652970     2.192291    -0.749672
 H     4.443345     1.588606    -0.272703
 H     3.395828     2.982106    -0.024110
 C     4.202218     2.831523    -2.016754
 H     4.503287     2.066639    -2.750338
 H     3.446926     3.471339    -2.500573
 H     5.083391     3.456265    -1.805465
