  88
scf done:    -3426.076490
 C     1.521837    -2.429904    -1.528823
 H     1.521733    -2.605171    -2.610571
 H     2.549693    -2.356400    -1.156241
 C     0.603101    -3.303585    -0.748118
 H    -0.029037    -3.971303    -1.348932
 H     1.086649    -3.882943     0.052845
 H    -0.171932    -2.678683    -0.120722
Co     0.229685    -1.135105    -0.837192
 C     2.168045    -0.505682     2.031280
 O     3.119550    -0.016097    -0.517552
 O     1.380055     1.529069     0.604627
 C    -1.616156    -0.045720     1.890232
 O    -2.025447     1.174254    -0.380554
 O    -2.912724    -1.195004    -0.116168
 P    -1.520670    -0.323611     0.076086
 P     1.682773    -0.070942     0.292290
 C    -0.066529    -0.609676    -2.447160
 O    -0.141341    -0.209099    -3.530299
 H     1.185868    -0.548149     2.533466
 C     2.760219    -1.910349     2.034970
 H     2.937501    -2.257052     3.065001
 H     2.089669    -2.633262     1.547200
 H     3.721772    -1.934855     1.498863
 C     3.034372     0.493547     2.785880
 H     2.623404     1.510348     2.723658
 H     3.093746     0.209897     3.849459
 H     4.064759     0.511775     2.401788
 C     4.134395     0.959418    -0.365617
 H     4.178384     1.536839    -1.306948
 H     3.883016     1.668806     0.438558
 C     5.474842     0.300184    -0.113003
 H     6.234726     1.095968    -0.013818
 H     5.446582    -0.219610     0.861084
 C     5.885110    -0.682154    -1.200796
 H     5.938998    -0.148783    -2.166366
 H     5.084639    -1.430597    -1.318041
 C     7.208980    -1.371350    -0.915741
 H     8.030836    -0.643200    -0.819084
 H     7.166574    -1.943256     0.025571
 H     7.480974    -2.074224    -1.717677
 C     0.985124     2.396058    -0.447302
 H     1.889779     2.767478    -0.963851
 H     0.388089     1.834120    -1.183314
 C     0.188363     3.545440     0.123413
 H    -0.135636     4.184031    -0.717397
 H    -0.732025     3.133831     0.568184
 C     0.943020     4.379126     1.147982
 H     1.854106     4.795891     0.682049
 H    -0.756443     0.619753     2.088541
 C     0.100982     5.501755     1.731590
 H    -0.241202     6.196447     0.947251
 H    -0.798248     5.104394     2.229663
 H     0.661008     6.089327     2.474925
 H     1.293526     3.714271     1.954651
 C    -2.900651     0.641135     2.332673
 H    -2.899861     0.779686     3.425625
 H    -3.014471     1.624003     1.857126
 H    -3.776960     0.031172     2.065688
 C    -1.403316    -1.378635     2.599912
 H    -0.526948    -1.917455     2.206343
 H    -1.250420    -1.225424     3.679320
 H    -2.281754    -2.029513     2.471983
 C    -2.465680     1.428444    -1.704935
 H    -1.661229     1.948803    -2.254016
 H    -2.660502     0.482541    -2.236292
 C    -3.724567     2.267059    -1.664420
 H    -4.078703     2.401212    -2.701799
 H    -4.505013     1.691867    -1.136577
 C    -3.543229     3.623828    -0.999259
 H    -2.759868     4.187825    -1.536110
 H    -3.155039     3.470119     0.020836
 C    -4.823950     4.439969    -0.947018
 H    -5.219661     4.633750    -1.957254
 H    -5.609735     3.911493    -0.383438
 H    -4.664574     5.414041    -0.460166
 C    -3.016209    -2.306461    -0.989242
 H    -3.905471    -2.142539    -1.621871
 H    -2.130236    -2.342806    -1.646895
 C    -3.151451    -3.595255    -0.205774
 H    -3.184868    -4.435161    -0.922323
 H    -2.234374    -3.740041     0.393141
 C    -4.369174    -3.636608     0.706044
 H    -5.282842    -3.553787     0.091215
 H    -4.359400    -2.739557     1.347190
 C    -4.433228    -4.889084     1.563960
 H    -4.462058    -5.800504     0.945003
 H    -3.550789    -4.967106     2.219838
 H    -5.326006    -4.896146     2.207380
