  82
scf done:    -3498.863648
 C    -0.687095    -3.075248    -0.885130
 H    -0.705507    -4.012777    -0.315824
 H    -1.622435    -2.953698    -1.447243
 C     0.558474    -2.850815    -1.674460
 H     1.354863    -3.590507    -1.514524
 H     0.396698    -2.714911    -2.754586
 H     1.068058    -1.833099    -1.400700
Co     0.050831    -1.503808    -0.007494
 C    -1.429788     0.889091    -2.127476
 C    -3.225922    -0.817187    -0.644752
 C    -1.798987     1.186500     0.701432
 C     1.561965     0.649028     2.205095
 C     3.287859    -0.811622     0.405871
 C     1.762035     1.370193    -0.603884
 P     1.606836    -0.076167     0.510027
 P    -1.521463    -0.111651    -0.576811
 C    -0.085521    -2.200086     1.542485
 O    -0.311953    -2.612589     2.605658
 H    -0.559251     1.551160    -2.002041
 C    -1.238513     0.012594    -3.354332
 H    -2.080397    -0.683105    -3.496153
 H    -0.322896    -0.588602    -3.257312
 H    -2.310851     1.542041    -2.233722
 H    -1.146068     0.622145    -4.266186
 C    -3.529089    -1.895255     0.196881
 H    -2.737246    -2.325196     0.814434
 C    -4.248550    -0.300214    -1.445537
 H    -4.059231     0.545412    -2.109964
 C    -4.813706    -2.424907     0.243923
 H    -5.023446    -3.261487     0.916774
 C    -5.530666    -0.844838    -1.407332
 H    -6.311763    -0.422909    -2.046399
 C    -5.839047    -1.914823    -0.561983
 C    -7.212991    -2.517629    -0.534734
 H    -7.958836    -1.844712    -0.981231
 H    -7.239792    -3.463926    -1.100483
 H    -7.530291    -2.747513     0.493583
 C    -1.836110     2.557128     0.433976
 H    -1.717047     2.926323    -0.585448
 C    -1.951301     0.770170     2.033139
 H    -1.908130    -0.294466     2.275159
 C    -2.004386     3.482200     1.465668
 H    -2.018851     4.550290     1.229272
 C    -2.133885     1.694076     3.053841
 H    -2.249167     1.339296     4.082122
 C    -2.157102     3.071956     2.791839
 C    -2.356007     4.061214     3.902405
 H    -3.378392     3.997619     4.309671
 H    -1.665181     3.870555     4.738335
 H    -2.197940     5.092985     3.558172
 H     1.379735    -0.216353     2.862098
 C     2.771294     1.440722     2.670367
 H     2.992270     2.290358     2.006677
 H     3.671522     0.810622     2.712632
 H     0.635182     1.243676     2.250202
 H     2.597168     1.844701     3.679847
 C     3.425038    -2.188627     0.606679
 H     2.524366    -2.784035     0.780827
 C     4.440291    -0.052242     0.163553
 H     4.357859     1.023990    -0.006417
 C     4.681730    -2.788495     0.578694
 H     4.766273    -3.866281     0.743986
 C     5.691481    -0.658692     0.129609
 H     6.579070    -0.048193    -0.060389
 C     5.836338    -2.037193     0.336375
 C     7.187085    -2.686974     0.267695
 H     7.965458    -2.045772     0.707288
 H     7.198100    -3.651762     0.794311
 H     7.477687    -2.879229    -0.778756
 C     1.355761     2.657072    -0.244700
 H     1.020628     2.867987     0.771780
 C     2.161361     1.148539    -1.931742
 H     2.477501     0.147711    -2.240131
 C     1.340088     3.687682    -1.186176
 H     1.007733     4.683787    -0.880501
 C     2.150293     2.178110    -2.862391
 H     2.463023     1.976518    -3.890923
 C     1.731846     3.470574    -2.508704
 C     1.718217     4.575216    -3.523728
 H     2.739512     4.819019    -3.858629
 H     1.146228     4.287195    -4.419558
 H     1.271449     5.492641    -3.116002
