  88
scf done:    -3577.391800
 C     0.318858     2.363456    -1.200885
 H     1.295385     2.549573    -1.665237
 H    -0.485918     2.856807    -1.759401
 C     0.264912     2.542204     0.266252
 H     1.198836     2.916811     0.707311
 H    -0.597118     3.112173     0.638416
 H     0.154505     1.515091     0.847261
Co    -0.043689     0.543050    -0.593481
 C    -1.930083    -1.550200     1.711737
 C    -2.589530     1.268558     1.124644
 C    -3.245613    -0.945836    -0.733565
 C     2.238763    -1.571594    -1.840107
 C     3.244565     0.972900    -0.729766
 C     2.677622    -1.312606     1.013822
 P     2.011229    -0.352048    -0.429225
 P    -1.907986    -0.247906     0.341945
 C    -0.367526     0.252399    -2.223170
 O    -0.503224     0.085968    -3.363248
 H    -1.148197    -1.197045     2.407312
 C    -3.223712    -1.750454     2.488879
 H    -3.064526    -2.504694     3.277281
 H    -3.584493    -0.834313     2.975739
 H    -4.019824    -2.130887     1.831964
 C    -1.478877    -2.881586     1.117325
 H    -0.573905    -2.784545     0.503684
 H    -1.264417    -3.603690     1.920930
 H    -2.270237    -3.310030     0.483648
 C    -2.380189     1.476676     2.495461
 H    -1.911791     0.696093     3.097965
 C    -3.133179     2.318064     0.345590
 C    -3.296767     2.216419    -1.141786
 H    -4.173309     1.615833    -1.428142
 H    -2.419006     1.723766    -1.584513
 H    -3.409045     3.213410    -1.589363
 C    -2.742877     2.669110     3.115711
 H    -2.569205     2.800516     4.186313
 C    -3.501874     3.502813     0.993346
 H    -3.927765     4.312071     0.393569
 C    -3.323046     3.685325     2.362249
 H    -3.618435     4.625938     2.832832
 C    -2.768767    -1.727593    -1.797782
 H    -1.693250    -1.809573    -1.953773
 C    -4.644933    -0.850334    -0.537145
 C    -5.327507    -0.046280     0.536185
 H    -5.611699     0.949905     0.159530
 H    -4.708466     0.120893     1.419800
 H    -6.253430    -0.549025     0.851083
 C    -3.619620    -2.401732    -2.665349
 H    -3.204737    -2.998026    -3.480785
 C    -5.484583    -1.530548    -1.432980
 H    -6.565791    -1.452719    -1.286914
 C    -4.994670    -2.296027    -2.484128
 H    -5.686553    -2.810046    -3.155727
 H     1.897959    -0.996919    -2.717889
 C     3.634120    -2.113030    -2.104481
 H     3.615581    -2.747299    -3.005983
 H     4.378003    -1.322226    -2.270896
 H     3.977017    -2.742657    -1.270339
 C     1.251726    -2.715139    -1.635248
 H     0.242030    -2.328539    -1.446046
 H     1.220806    -3.360981    -2.526516
 H     1.542460    -3.339268    -0.775071
 C     3.607718     1.272895    -2.051680
 H     3.233645     0.653108    -2.868583
 C     3.683337     1.825962     0.310078
 C     3.319190     1.615184     1.753278
 H     3.979847     0.878344     2.236093
 H     2.296119     1.233402     1.873934
 H     3.405720     2.557810     2.312496
 C     4.426720     2.355830    -2.355850
 H     4.695430     2.559460    -3.394981
 C     4.504766     2.910663    -0.019482
 H     4.846948     3.568662     0.784492
 C     4.886934     3.177393    -1.330865
 H     5.528642     4.033632    -1.551111
 C     1.659691    -1.748375     1.872886
 H     0.647295    -1.423294     1.632646
 C     4.015202    -1.650757     1.320761
 C     5.227602    -1.182103     0.563282
 H     4.983732    -0.574946    -0.311187
 H     5.836626    -2.037542     0.233003
 H     5.866176    -0.568831     1.219609
 C     1.909450    -2.536264     2.989278
 H     1.085792    -2.860397     3.630227
 C     4.250114    -2.444251     2.454904
 H     5.284050    -2.707902     2.697281
 C     3.223908    -2.894029     3.278138
 H     3.454173    -3.511366     4.150009
