 104
scf done:    -3511.372091
 C    -1.621231    -2.575889    -2.409319
 H    -1.475176    -3.662530    -2.428493
 H    -2.692198    -2.349058    -2.354657
 C    -0.875857    -1.830095    -3.468478
 H    -0.260271    -2.456028    -4.129242
 H    -1.500786    -1.160045    -4.077938
 H    -0.098227    -1.069407    -3.022867
Co    -0.341961    -1.543434    -1.356287
 O    -1.308240     1.477374    -0.604392
 C    -3.459255    -0.061073    -1.295135
 C    -2.109366    -0.437720     1.220890
 O     1.809896    -0.095334     0.672284
 C     2.962495    -1.392392    -1.415881
 C     1.648166     1.206625    -1.648026
 P     1.455134    -0.463386    -0.913202
 P    -1.763599    -0.133025    -0.567136
 C     0.136886    -2.952443    -0.525002
 O     0.382842    -3.898179     0.104145
 C    -1.700424     2.515746     0.266502
 H    -1.919260     3.399937    -0.358503
 H    -2.634322     2.271912     0.799787
 C    -0.604938     2.839552     1.261633
 H    -0.395300     1.941529     1.864433
 H     0.322218     3.050138     0.704226
 C    -0.944890     4.013287     2.166946
 H    -1.874635     3.793767     2.722018
 H    -1.169928     4.899546     1.546981
 C     0.166874     4.348473     3.148355
 H     0.383075     3.496376     3.811733
 H     1.101645     4.595980     2.619684
 H    -0.094867     5.208388     3.783057
 H    -3.845296    -1.092688    -1.238840
 H    -3.293685     0.135914    -2.367360
 C    -4.478823     0.907478    -0.716266
 H    -4.527921     0.787064     0.379864
 H    -4.153829     1.946293    -0.898534
 C    -5.896579     0.738024    -1.273215
 H    -6.203309    -0.307253    -1.077973
 C    -6.866978     1.655766    -0.538620
 H    -6.854205     1.470750     0.547039
 H    -7.900339     1.515448    -0.891802
 H    -6.602154     2.714416    -0.699023
 C    -5.960860     0.971460    -2.778355
 H    -6.990338     0.860891    -3.152601
 H    -5.330195     0.263040    -3.335632
 H    -5.623116     1.991241    -3.029937
 H    -2.703185     0.372812     1.674392
 H    -1.119257    -0.420243     1.700453
 C    -2.795994    -1.782113     1.428620
 H    -3.834486    -1.714644     1.061180
 H    -2.297881    -2.540654     0.799387
 C    -2.826690    -2.285896     2.874113
 H    -3.299488    -1.503579     3.498360
 C    -3.684838    -3.542940     2.964882
 H    -4.708175    -3.360459     2.600863
 H    -3.755422    -3.909086     4.000837
 H    -3.252613    -4.352110     2.353218
 C    -1.427718    -2.549145     3.421582
 H    -1.473070    -2.978318     4.434417
 H    -0.828613    -1.628639     3.486093
 H    -0.884396    -3.258328     2.774998
 C     1.794622    -1.131694     1.635593
 H     0.759739    -1.480166     1.791249
 H     2.370478    -2.004888     1.280768
 C     2.391229    -0.621465     2.928281
 H     2.378057    -1.453630     3.653877
 H     3.453953    -0.373236     2.758864
 C     1.673547     0.588113     3.508014
 H     0.604226     0.344118     3.643968
 H     1.703912     1.402292     2.767053
 C     2.264480     1.060479     4.825496
 H     2.212355     0.274022     5.595631
 H     3.324991     1.336332     4.709216
 H     1.734904     1.942982     5.216021
 H     2.850394    -1.576746    -2.498473
 H     2.843193    -2.383866    -0.950140
 C     4.315617    -0.781767    -1.080874
 H     4.521557     0.048980    -1.775623
 H     4.276681    -0.331408    -0.073140
 C     5.486693    -1.768291    -1.131020
 H     5.450146    -2.286092    -2.108186
 C     6.812011    -1.019998    -1.044036
 H     6.917871    -0.289516    -1.861358
 H     7.669223    -1.709215    -1.094327
 H     6.885262    -0.467090    -0.092417
 C     5.390484    -2.823010    -0.033435
 H     6.231954    -3.530854    -0.086665
 H     4.463926    -3.413298    -0.097752
 H     5.416339    -2.348844     0.962529
 H     0.621475     1.603202    -1.676019
 H     1.950062     1.024306    -2.694121
 C     2.563234     2.202535    -0.945530
 H     2.362481     2.154929     0.135567
 H     3.621889     1.918664    -1.064231
 C     2.380133     3.644923    -1.423914
 H     1.306631     3.892596    -1.316026
 C     3.170669     4.600461    -0.537920
 H     2.869476     4.509084     0.517853
 H     3.024285     5.648763    -0.841674
 H     4.250926     4.385380    -0.593792
 C     2.752453     3.821296    -2.891428
 H     2.614766     4.864326    -3.216397
 H     2.140356     3.187207    -3.550397
 H     3.810549     3.557530    -3.059621
