  98
scf done:    -3432.819268
 C    -0.370447    -0.587676    -3.140433
 H     0.041947    -1.372013    -3.786742
 H    -1.452010    -0.507320    -3.300177
 C     0.370559     0.708398    -3.187174
 H     1.241987     0.721650    -3.857078
 H    -0.260452     1.587757    -3.384016
 H     0.831015     0.988167    -2.150393
Co     0.345829    -0.479540    -1.331956
 O    -1.655790     1.686292     0.018663
 C    -3.059529    -0.330943    -1.248268
 C    -1.752634    -0.757861     1.282374
 O     1.294665     0.081868     1.746655
 C     3.309052    -0.949072     0.187311
 C     2.497668     1.770166    -0.063737
 P     1.785170     0.083273     0.156182
 P    -1.494070     0.063363    -0.343694
 C     0.850013    -2.104643    -1.405784
 O     1.122650    -3.233021    -1.411091
 C    -2.632851     2.288211     0.856605
 H    -3.353819     1.526404     1.200376
 C    -3.376590     3.331096     0.044421
 H    -3.866554     2.868926    -0.825434
 H    -2.672231     4.091423    -0.326585
 H    -4.145001     3.834351     0.650879
 C    -1.938446     2.871484     2.073041
 H    -1.389536     2.086609     2.611979
 H    -1.216013     3.642237     1.764597
 H    -2.664652     3.329721     2.761691
 H    -2.872287    -1.331251    -1.675965
 H    -3.060563     0.356537    -2.109955
 C    -4.404945    -0.317014    -0.536553
 H    -4.341039    -0.903984     0.395036
 H    -4.672143     0.709587    -0.232977
 C    -5.558615    -0.881012    -1.373191
 H    -5.276463    -1.908904    -1.670513
 C    -6.828478    -0.967170    -0.534561
 H    -6.673837    -1.576419     0.369816
 H    -7.658277    -1.414004    -1.103854
 H    -7.151723     0.035974    -0.208975
 C    -5.799657    -0.074878    -2.644579
 H    -6.643801    -0.484739    -3.220447
 H    -4.920883    -0.071083    -3.306285
 H    -6.041622     0.974054    -2.401434
 H    -2.672719    -0.385775     1.763986
 H    -0.894954    -0.439331     1.892292
 C    -1.795985    -2.275645     1.160297
 H    -2.562756    -2.572190     0.423275
 H    -0.836626    -2.631971     0.748809
 C    -2.087764    -3.010783     2.470670
 H    -3.057911    -2.639182     2.853519
 C    -2.226586    -4.507007     2.214588
 H    -3.015647    -4.717317     1.475717
 H    -2.473737    -5.054103     3.137780
 H    -1.284802    -4.923072     1.819953
 C    -1.030003    -2.737931     3.533212
 H    -1.251797    -3.280956     4.465133
 H    -0.959621    -1.667821     3.779253
 H    -0.037597    -3.064822     3.180916
 C     2.139552     0.365330     2.858817
 H     3.067604     0.850777     2.502987
 C     2.498570    -0.925740     3.571725
 H     3.016869    -1.623090     2.899510
 H     1.586751    -1.420281     3.936601
 H     3.154039    -0.725446     4.432807
 C     1.407055     1.334925     3.766304
 H     1.164493     2.264875     3.234010
 H     0.465536     0.885287     4.117924
 H     2.019227     1.585482     4.645459
 H     2.965286    -1.968560     0.431400
 H     3.981867    -0.623384     0.996242
 C     4.017472    -0.944942    -1.164975
 H     3.252916    -0.871443    -1.959043
 H     4.648195    -0.041783    -1.254370
 C     4.871258    -2.184945    -1.433690
 H     4.191552    -3.055226    -1.375172
 C     5.447122    -2.136106    -2.843311
 H     4.649896    -2.037088    -3.596271
 H     6.018848    -3.047852    -3.075905
 H     6.128758    -1.276739    -2.961484
 C     5.971203    -2.366638    -0.394492
 H     6.571185    -3.265997    -0.603294
 H     5.564171    -2.471503     0.622875
 H     6.656996    -1.502021    -0.394068
 H     2.904550     1.773288    -1.090436
 H     3.360542     1.904292     0.609939
 C     1.463810     2.874887     0.101692
 H     0.527565     2.575158    -0.395803
 H     1.195988     2.963629     1.168399
 C     1.894961     4.245320    -0.420503
 H     2.135441     4.126364    -1.494568
 C     0.740600     5.234561    -0.309164
 H    -0.155449     4.861817    -0.829264
 H     1.002739     6.213864    -0.738906
 H     0.467132     5.398464     0.746937
 C     3.139736     4.774724     0.282357
 H     3.423334     5.767553    -0.100255
 H     4.006159     4.109756     0.146552
 H     2.961229     4.875005     1.366711
