  62
scf done:    -2961.413200
 C    -0.667889    -2.664070    -1.183383
 H    -0.467207    -3.677102    -0.814224
 H    -1.710679    -2.594056    -1.516905
 C     0.338288    -2.145123    -2.157701
 H     1.150881    -2.843355    -2.403903
 H    -0.091609    -1.735823    -3.083549
 H     0.922863    -1.214513    -1.744921
Co     0.135666    -1.190954    -0.185227
 O    -1.313872     1.227358    -1.755373
 C    -3.186683    -0.532022    -0.765280
 C    -1.822277     1.310043     0.948909
 O     1.350966     1.243448     1.694451
 C     3.265782    -0.400773     0.718601
 C     1.902417     1.616817    -0.852583
 P     1.595532     0.277777     0.354505
 P    -1.507307     0.167371    -0.462569
 C     0.407046    -2.207094     1.163399
 O     0.512418    -2.878261     2.103363
 C    -2.334820     1.773161    -2.546366
 H    -2.860388     1.000945    -3.134718
 H    -3.085912     2.331735    -1.962440
 H    -1.864407     2.473960    -3.252626
 H    -3.919655     0.270418    -0.947092
 H    -3.123568    -1.117969    -1.698026
 C    -3.644368    -1.427157     0.381063
 H    -3.819290    -0.809715     1.278865
 H    -2.823068    -2.115044     0.643110
 C    -4.903517    -2.213150     0.052081
 H    -5.743479    -1.545195    -0.198680
 H    -4.740511    -2.878090    -0.811200
 H    -5.217556    -2.840917     0.899780
 H    -1.980536     0.639769     1.812762
 H    -0.856012     1.803677     1.140736
 C    -2.935177     2.344296     0.860720
 H    -3.896343     1.857646     0.622337
 H    -2.722520     3.034644     0.028393
 C    -3.081251     3.141110     2.149159
 H    -3.328175     2.482630     2.997392
 H    -2.144034     3.662838     2.400391
 H    -3.876325     3.898507     2.071357
 C     0.998190     0.647907     2.919481
 H     0.159231    -0.057743     2.803632
 H     1.846851     0.103994     3.369912
 H     0.698796     1.453522     3.605020
 H     3.944005     0.422444     0.998356
 H     3.140820    -1.038657     1.610434
 C     3.828047    -1.234222    -0.425413
 H     3.963440    -0.598339    -1.318064
 H     3.075414    -1.992060    -0.701699
 C     5.144601    -1.910505    -0.078141
 H     5.918547    -1.171888     0.185259
 H     5.025926    -2.586824     0.783192
 H     5.524974    -2.507178    -0.921176
 H     2.216361     1.109560    -1.782437
 H     0.906712     2.032747    -1.081783
 C     2.886480     2.706819    -0.453489
 H     3.889174     2.271128    -0.305210
 H     2.584543     3.115504     0.523710
 C     2.966313     3.820400    -1.486575
 H     3.290066     3.436395    -2.467463
 H     1.984485     4.299205    -1.629997
 H     3.678630     4.602750    -1.182841
