  56
scf done:    -2882.866417
 C    -3.137570    -2.018134    -0.055218
 H    -4.219225    -1.871592    -0.161172
 H    -2.810368    -2.833205    -0.712008
 C    -2.659379    -2.123139     1.357801
 H    -3.446614    -2.035088     2.119575
 H    -2.047662    -3.013525     1.567131
 H    -1.918981    -1.260074     1.642060
Co    -2.047094    -0.413371     0.118291
 O     1.074187    -1.062270    -0.344845
 C    -0.429537    -2.795618    -1.812326
 C    -0.182744    -0.096087    -2.590129
 O    -0.062970     2.076889    -0.078915
 C    -1.959183     2.477522     1.837568
 C     0.248656     0.730318     2.289765
 P    -0.963971     1.191389     0.998201
 P    -0.430797    -1.108943    -1.085583
 C    -3.309231     0.567082    -0.490740
 O    -4.128803     1.213198    -0.993179
 C     2.301450    -1.388091    -0.953342
 H     2.243642    -2.370958    -1.457746
 H     2.566163    -0.639168    -1.721817
 C     3.369622    -1.431128     0.119738
 H     4.348802    -1.589310    -0.365334
 H     3.418461    -0.438247     0.600681
 C     3.126189    -2.499811     1.175717
 H     3.124416    -3.492106     0.690069
 H     2.111414    -2.363317     1.583970
 C     4.148838    -2.476478     2.299238
 H     5.171295    -2.630289     1.917584
 H     4.138456    -1.508458     2.826032
 H     3.951355    -3.261405     3.044892
 H    -1.345603    -2.913408    -2.408491
 H     0.436131    -2.978328    -2.465519
 H    -0.442493    -3.546883    -1.008709
 H     0.690059    -0.397012    -3.190468
 H    -1.091802    -0.192584    -3.201880
 H    -0.091085     0.952140    -2.275175
 C     0.773899     3.156015     0.288565
 H     0.507046     4.009096    -0.359538
 H     0.583478     3.476246     1.328066
 C     2.240715     2.812067     0.114106
 H     2.834622     3.690554     0.424595
 H     2.506662     1.996059     0.808177
 C     2.605379     2.410477    -1.306710
 H     2.309157     3.217956    -1.999599
 H     1.994456     1.537406    -1.581147
 C     4.080948     2.094441    -1.484823
 H     4.712161     2.965740    -1.246287
 H     4.396765     1.271316    -0.824196
 H     4.308231     1.794481    -2.519203
 H    -1.356935     3.270688     2.305636
 H    -2.646602     2.917809     1.100935
 H    -2.564198     1.983862     2.612382
 H     0.950272     0.018625     1.832594
 H     0.792803     1.592378     2.704261
 H    -0.288861     0.225758     3.106765
