  98
scf done:    -3432.814364
 C    -0.529830    -1.607643    -2.891020
 H    -0.319877    -2.642405    -3.187389
 H    -1.567215    -1.355413    -3.138509
 C     0.485009    -0.611592    -3.352086
 H     1.317526    -1.033830    -3.932994
 H     0.066205     0.253270    -3.887560
 H     1.037680    -0.092876    -2.458620
Co     0.232958    -1.005500    -1.200196
 O    -1.087489     1.827082    -0.361202
 C    -2.952694     0.249556    -1.623339
 C    -2.110116    -0.295112     1.068694
 O     1.166266     0.119099     1.747381
 C     3.245194    -1.007038     0.315533
 C     2.122251     1.582543    -0.256554
 P     1.631237    -0.133403     0.162233
 P    -1.435638     0.201732    -0.572192
 C     0.491521    -2.614831    -0.706003
 O     0.578578    -3.710356    -0.328425
 C    -1.737526     2.771778     0.479225
 H    -2.711629     2.372339     0.811262
 C    -1.980673     4.026437    -0.337495
 H    -2.608701     3.807012    -1.213441
 H    -1.022970     4.430044    -0.700741
 H    -2.478800     4.800762     0.265531
 C    -0.876690     3.031944     1.703375
 H    -0.642735     2.093449     2.223683
 H     0.078567     3.493153     1.407895
 H    -1.385392     3.712951     2.402822
 H    -2.626295     0.682715    -2.584882
 H    -3.177853    -0.808281    -1.841688
 C    -4.203937     0.955032    -1.122870
 H    -4.507402     0.541335    -0.145405
 H    -3.994704     2.023375    -0.951285
 C    -5.374306     0.834928    -2.090786
 H    -5.592750    -0.234056    -2.267430
 H    -5.077918     1.243966    -3.073917
 C    -6.636580     1.537162    -1.610239
 H    -6.925480     1.126892    -0.626141
 H    -6.411101     2.603924    -1.432714
 C    -7.802705     1.414946    -2.577685
 H    -8.699150     1.931751    -2.202782
 H    -8.072850     0.359974    -2.745893
 H    -7.554246     1.849567    -3.559349
 H    -1.262982    -0.188867     1.763260
 H    -2.896918     0.402679     1.399094
 C    -2.634769    -1.724341     1.084468
 H    -3.429143    -1.846700     0.326827
 H    -1.826668    -2.409220     0.780109
 C    -3.182967    -2.141968     2.442070
 H    -4.023055    -1.479862     2.721888
 H    -2.409981    -1.979281     3.215577
 C    -3.640505    -3.592783     2.488426
 H    -4.409264    -3.753893     1.711903
 H    -2.794168    -4.243674     2.207220
 C    -4.184796    -4.012529     3.844075
 H    -4.505195    -5.065432     3.846156
 H    -5.053805    -3.399819     4.134174
 H    -3.424002    -3.895589     4.632870
 C     1.530855    -0.680911     2.864554
 H     2.628416    -0.815243     2.865509
 C     0.872311    -2.048684     2.833365
 H     1.133605    -2.618129     1.931414
 H    -0.222854    -1.952857     2.858381
 H     1.184601    -2.638955     3.708166
 C     1.147823     0.114986     4.096689
 H     1.633939     1.101068     4.086726
 H     0.057973     0.269073     4.127778
 H     1.448188    -0.416013     5.012068
 H     3.910854    -0.482698     1.020814
 H     3.032458    -2.002656     0.738504
 C     3.905653    -1.169198    -1.048042
 H     3.148995    -1.548925    -1.757611
 H     4.219331    -0.182487    -1.432350
 C     5.104677    -2.105722    -1.030075
 H     4.782398    -3.095750    -0.659981
 H     5.850309    -1.739610    -0.300598
 C     5.764538    -2.266364    -2.392363
 H     5.009995    -2.622280    -3.115905
 H     6.084401    -1.274569    -2.758890
 C     6.951851    -3.215333    -2.380660
 H     7.406620    -3.310738    -3.378297
 H     6.652590    -4.224158    -2.053806
 H     7.736100    -2.866056    -1.689647
 H     2.576021     1.531063    -1.262005
 H     1.162587     2.107923    -0.384604
 C     3.022466     2.304251     0.731233
 H     2.573362     2.230011     1.735880
 H     4.004427     1.802890     0.795896
 C     3.233945     3.769904     0.376700
 H     2.250485     4.269753     0.304422
 H     3.678673     3.845532    -0.632397
 C     4.107968     4.518134     1.373233
 H     3.659379     4.433115     2.379030
 H     5.089339     4.015811     1.442287
 C     4.306608     5.983873     1.022872
 H     4.940758     6.497499     1.761332
 H     3.343699     6.518288     0.982328
 H     4.785465     6.097537     0.036904
