  96
scf done:    -3282.417449
 C     0.238211     0.672222    -3.103229
 H    -0.210912     1.598345    -3.481878
 H     1.255745     0.569008    -3.511257
 C    -0.624546    -0.538073    -3.244545
 H    -1.636926    -0.348397    -3.625867
 H    -0.170310    -1.360736    -3.820224
 H    -0.781804    -1.073933    -2.215544
Co    -0.119881     0.227860    -1.245286
 C     2.624003    -1.617989    -2.267228
 C     3.050563     0.991344    -0.984716
 C     2.485659    -1.263916     0.663675
 C    -0.857452    -1.637659     1.663858
 C    -2.321399     0.869527     1.286594
 C    -2.903551    -1.347852    -0.450989
 P    -1.472018    -0.468966     0.333882
 P     1.942441    -0.489084    -0.931340
 C    -0.350292     1.869691    -0.896674
 O    -0.392678     3.006002    -0.647111
 H     2.099616    -1.250787    -3.166112
 C     4.116179    -1.554568    -2.570794
 H     4.355392    -2.224026    -3.414101
 H     4.434544    -0.542948    -2.859945
 H     4.734286    -1.869835    -1.718167
 C     2.146293    -3.044948    -2.020549
 H     1.060503    -3.077104    -1.839070
 H     2.358303    -3.683248    -2.893324
 H     2.647564    -3.501006    -1.151853
 H     2.775098     1.523020    -1.910230
 H     4.107693     0.699044    -1.077493
 C     2.836562     1.899662     0.223049
 H     1.777483     1.854039     0.523759
 H     3.417206     1.520224     1.083786
 C     3.200103     3.365798    -0.012533
 H     2.614487     3.703283    -0.887455
 C     2.772916     4.213388     1.178932
 H     1.688958     4.125448     1.349366
 H     3.004703     5.278166     1.020065
 H     3.291240     3.893096     2.098880
 C     4.680096     3.547900    -0.327235
 H     4.923523     4.606508    -0.508503
 H     4.982958     2.981078    -1.221034
 H     5.304184     3.202626     0.515029
 H     1.907042    -2.191813     0.788489
 H     2.091890    -0.567761     1.421885
 C     3.961053    -1.536190     0.919093
 H     4.296327    -2.360338     0.269168
 H     4.572936    -0.660917     0.638157
 C     4.284900    -1.906788     2.371108
 H     3.606992    -2.732093     2.661882
 C     5.717723    -2.415303     2.482505
 H     5.888707    -3.286956     1.831529
 H     5.962438    -2.711733     3.514334
 H     6.433918    -1.631513     2.183715
 C     4.050463    -0.745251     3.331043
 H     4.271921    -1.037095     4.369227
 H     3.011355    -0.384150     3.307079
 H     4.704310     0.106417     3.078130
 H     0.131752    -1.212279     1.896173
 C    -1.638848    -1.714606     2.970090
 H    -1.150891    -2.430843     3.651822
 H    -1.673178    -0.746795     3.490099
 H    -2.673641    -2.056309     2.823957
 C    -0.634056    -3.013828     1.047335
 H    -0.129179    -2.934914     0.072141
 H    -0.009850    -3.641995     1.702804
 H    -1.586106    -3.545365     0.892440
 H    -1.514680     1.497910     1.701626
 H    -2.863652     0.439789     2.141218
 C    -3.254798     1.714861     0.424488
 H    -2.826675     1.818061    -0.585830
 H    -4.216769     1.187189     0.295246
 C    -3.526082     3.114690     0.976464
 H    -2.544529     3.612617     1.078065
 C    -4.352906     3.920783    -0.017172
 H    -3.842395     3.989808    -0.990064
 H    -4.529865     4.945743     0.344240
 H    -5.337534     3.451880    -0.184688
 C    -4.191632     3.076197     2.347244
 H    -4.377211     4.092267     2.729023
 H    -3.573158     2.552595     3.092278
 H    -5.164640     2.557770     2.295917
 H    -2.482392    -2.197412    -1.013816
 H    -3.245473    -0.635356    -1.218663
 C    -4.065373    -1.812600     0.415259
 H    -3.734983    -2.653214     1.046669
 H    -4.372105    -1.013648     1.113280
 C    -5.298256    -2.259220    -0.378859
 H    -4.957829    -2.990341    -1.136632
 C    -6.293732    -2.961593     0.537427
 H    -5.841287    -3.835301     1.032129
 H    -7.177978    -3.309512    -0.018719
 H    -6.646756    -2.277431     1.327285
 C    -5.965006    -1.098741    -1.109749
 H    -6.828034    -1.444425    -1.699295
 H    -5.278181    -0.588697    -1.801595
 H    -6.333072    -0.346834    -0.391417
