  78
scf done:    -3967.436507
 C     0.827735    -2.497326    -1.894482
 H     0.527182    -2.737089    -2.921476
 H     1.911477    -2.606286    -1.775981
 C     0.007623    -3.144413    -0.833956
 H    -0.796382    -3.800969    -1.196307
 H     0.597368    -3.663355    -0.064234
 H    -0.587848    -2.365045    -0.183163
Co    -0.048388    -0.958792    -1.075009
 O     1.470636     0.094657     1.647284
 C     3.145605    -1.259104    -0.003544
 C     2.276644     1.404668    -0.622124
 O    -1.891032     1.664254    -0.646129
 C    -3.313736    -0.719926    -0.525211
 C    -1.819829     0.275677     1.628519
 P    -1.690943     0.082406    -0.185008
 P     1.647832    -0.200639     0.015383
 C    -0.237872    -0.294119    -2.635398
 O    -0.225036     0.192061    -3.686009
 C     2.147543     1.098859     2.405467
 H     2.262415     1.995068     1.770577
 C     3.524107     0.647047     2.857938
 H     4.172275     0.391267     2.009189
 H     3.450187    -0.238271     3.508094
 H     4.012216     1.451406     3.429171
 C     1.246608     1.446466     3.571160
 H     0.262205     1.772503     3.210616
 H     1.100124     0.570010     4.220289
 H     1.688858     2.255100     4.172121
 C     3.970446    -1.352377    -1.133082
 H     3.800231    -0.692375    -1.987764
 C     3.355855    -2.151738     1.054778
 H     2.702915    -2.101486     1.928998
 C     5.006795    -2.280638    -1.189319
 H     5.660930    -2.356799    -2.059780
 C     4.385266    -3.087967     1.011693
 H     4.565290    -3.782002     1.834842
 C     5.203033    -3.135446    -0.111052
 F     6.192182    -4.025648    -0.158345
 C     3.625165     1.786985    -0.590794
 H     4.380399     1.099975    -0.203618
 C     1.333107     2.314040    -1.121095
 H     0.276154     2.039849    -1.146347
 C     4.028002     3.037562    -1.050062
 H     5.075631     3.343587    -1.036175
 C     1.719892     3.572316    -1.570975
 H     0.992956     4.288108    -1.959444
 C     3.065711     3.915735    -1.535107
 F     3.444033     5.113326    -1.973920
 C    -3.001790     2.236120    -1.339934
 H    -3.935751     1.829050    -0.912673
 C    -2.947647     1.903715    -2.817232
 H    -3.004075     0.819721    -2.985227
 H    -2.008137     2.263299    -3.261544
 H    -3.791666     2.373682    -3.344042
 C    -2.945668     3.727268    -1.076544
 H    -2.995138     3.943136     0.000645
 H    -2.006403     4.148011    -1.467044
 H    -3.785800     4.237144    -1.570290
 C    -4.451345    -0.516116     0.269171
 H    -4.396540     0.132294     1.146766
 C    -3.402719    -1.588680    -1.620298
 H    -2.505244    -1.761163    -2.221654
 C    -5.654707    -1.143769    -0.035232
 H    -6.548958    -0.996453     0.573028
 C    -4.598662    -2.226182    -1.935937
 H    -4.681102    -2.905415    -2.786312
 C    -5.711715    -1.990060    -1.138118
 F    -6.858840    -2.594707    -1.428768
 C    -2.316354     1.439930     2.220689
 H    -2.560665     2.297054     1.590816
 C    -1.460781    -0.803038     2.443489
 H    -1.027798    -1.700040     1.993786
 C    -2.488546     1.518770     3.601801
 H    -2.871582     2.420488     4.083031
 C    -1.635762    -0.743586     3.820691
 H    -1.363290    -1.576328     4.471406
 C    -2.152875     0.419479     4.381882
 F    -2.314110     0.485310     5.701197
