  42
scf done:    -2947.937439
 C     0.932154    -2.454816    -1.002418
 H     2.010910    -2.298262    -1.119292
 H     0.724247    -3.457043    -0.609245
 C     0.121994    -2.056302    -2.190451
 H     0.719322    -1.664173    -3.024872
 H    -0.580214    -2.821346    -2.548399
 H    -0.589114    -1.146118    -1.977619
Co    -0.156882    -0.995534    -0.290803
 O    -1.511825     1.744021    -1.152051
 O    -3.185215     0.044361    -0.617412
 O    -2.052735     1.107120     1.277062
 O     1.326521     1.855080     0.118577
 O     2.502275     0.012993     1.203091
 O     2.589683     0.149284    -1.335862
 P     1.509784     0.243413    -0.101821
 P    -1.666544     0.461490    -0.180478
 C    -0.713359    -1.979778     1.003858
 O    -0.981154    -2.625121     1.925712
 C    -2.499488     2.753954    -1.221673
 H    -3.380781     2.401751    -1.778799
 H    -2.816824     3.067275    -0.214663
 H    -2.050909     3.609300    -1.744369
 C    -3.828921    -1.037986     0.015062
 H    -3.306805    -1.987590    -0.188653
 H    -3.881894    -0.889266     1.106012
 H    -4.848966    -1.094371    -0.388540
 C    -1.088882     1.325284     2.282387
 H    -0.284920     0.572544     2.239947
 H    -0.641296     2.326667     2.183734
 H    -1.596158     1.251548     3.254604
 C     2.077990     2.683347     0.976027
 H     2.099193     2.288568     2.002753
 H     3.118054     2.804196     0.633251
 H     1.591934     3.669449     0.972532
 C     2.826179    -1.283985     1.646266
 H     1.925478    -1.908109     1.757292
 H     3.517214    -1.787523     0.949155
 H     3.320727    -1.183744     2.622651
 C     3.788143     0.886511    -1.375050
 H     3.592082     1.946822    -1.606198
 H     4.334493     0.820959    -0.419470
 H     4.416185     0.465059    -2.172657
