  82
scf done:    -3871.466490
 C     0.416272     3.198234     0.542276
 H     1.320010     3.705834     0.188283
 H    -0.488512     3.810162     0.455589
 C     0.541353     2.386762     1.752104
 H     1.529639     2.403880     2.232322
 H    -0.269581     2.498357     2.483938
 H     0.494595     1.173277     1.541131
Co     0.200728     1.337288    -0.039812
 O    -1.382492    -1.210360     1.174874
 O    -2.788932     0.789236     1.003913
 O    -2.162814    -0.442398    -1.163166
 O     2.748836     0.880544    -1.888436
 O     3.217679     0.718983     0.638122
 O     2.230555    -1.212244    -0.730334
 P     2.027068     0.435498    -0.507430
 P    -1.455779     0.102463     0.237800
 C    -0.243489     1.983305    -1.563246
 O    -0.518225     2.439399    -2.582145
 C    -2.410241    -1.850238     1.908263
 H    -3.172076    -1.130592     2.237983
 H    -2.885411    -2.633857     1.299673
 H    -1.933683    -2.313858     2.783421
 C    -3.093664     2.107604     0.815079
 C    -3.221436     2.926756     1.935984
 H    -3.074444     2.489966     2.925979
 C    -3.274894     2.644884    -0.460664
 H    -3.169002     2.005610    -1.338848
 C    -3.521853     4.276669     1.778130
 H    -3.614668     4.910046     2.664850
 C    -3.561938     3.999755    -0.601987
 H    -3.680030     4.411780    -1.607876
 C    -3.692183     4.841846     0.508332
 C    -4.031227     6.295119     0.343290
 H    -5.122705     6.445503     0.289725
 H    -3.600615     6.706042    -0.581541
 H    -3.660094     6.894194     1.187464
 C    -3.141624    -1.403053    -1.179850
 C    -4.470415    -1.077586    -0.911566
 H    -4.736028    -0.045209    -0.680053
 C    -2.788766    -2.719042    -1.472853
 H    -1.740458    -2.948205    -1.666542
 C    -5.436516    -2.080576    -0.925406
 H    -6.476065    -1.819747    -0.707910
 C    -3.766120    -3.709237    -1.482439
 H    -3.479622    -4.740888    -1.706186
 C    -5.107041    -3.411648    -1.207285
 C    -6.161973    -4.479170    -1.249635
 H    -6.586791    -4.576194    -2.262961
 H    -6.994485    -4.251312    -0.568183
 H    -5.753189    -5.462020    -0.973022
 C     3.588548     0.092739    -2.714323
 H     4.512704    -0.200915    -2.194903
 H     3.065204    -0.812512    -3.053880
 H     3.843969     0.715898    -3.581758
 C     4.549937     0.496156     0.404605
 C     5.350167     1.551516    -0.031388
 H     4.892062     2.529678    -0.188059
 C     5.106622    -0.767841     0.598695
 H     4.472188    -1.590829     0.931311
 C     6.702524     1.336163    -0.278177
 H     7.320822     2.168229    -0.626765
 C     6.461824    -0.966427     0.347561
 H     6.889470    -1.961886     0.496728
 C     7.285135     0.075793    -0.095026
 C     8.751424    -0.141891    -0.333898
 H     9.134032     0.519696    -1.124816
 H     8.962741    -1.180802    -0.626041
 H     9.337035     0.066814     0.577317
 C     1.612417    -2.132091     0.065953
 C     1.672069    -2.069163     1.457810
 H     2.211211    -1.252124     1.940390
 C     0.919425    -3.173576    -0.551877
 H     0.885844    -3.202828    -1.642908
 C     1.030984    -3.045848     2.217522
 H     1.078089    -2.983724     3.308412
 C     0.288136    -4.139939     0.220914
 H    -0.256498    -4.949046    -0.274635
 C     0.325499    -4.093232     1.620953
 C    -0.388019    -5.129219     2.440636
 H    -0.220148    -4.977200     3.516275
 H    -0.051358    -6.147354     2.188751
 H    -1.475623    -5.096507     2.263181
