  38
scf done:    -2647.162351
 C    -1.788712    -2.273279    -0.444480
 H    -1.738038    -3.286527    -0.028128
 H    -2.807169    -1.880741    -0.335936
 C    -1.206920    -2.133136    -1.815622
 H    -0.797586    -3.060940    -2.239290
 H    -1.877929    -1.662976    -2.550061
 H    -0.287332    -1.407396    -1.837450
Co    -0.261686    -1.109583    -0.114969
 O    -0.948385     1.993999    -0.664916
 C    -3.232160     0.699218    -0.010131
 C    -1.281474     1.237934     1.960902
 O     1.725578     1.204284     0.744802
 C     3.123939    -0.946045    -0.151316
 C     1.787493     0.793459    -1.971118
 P     1.552592    -0.033209    -0.355749
 P    -1.412546     0.649596     0.231640
 C     0.312880    -2.126534     1.135800
 O     0.647589    -2.761409     2.044828
 C    -1.257055     3.310787    -0.305314
 H    -2.333628     3.460477    -0.103445
 H    -0.690310     3.638605     0.583972
 H    -0.980964     3.963213    -1.147615
 H    -3.473596     0.412745    -1.044134
 H    -3.705735    -0.023068     0.670278
 H    -3.649205     1.696831     0.193402
 H    -1.626807     0.416221     2.604832
 H    -0.218064     1.416702     2.171148
 H    -1.875414     2.139849     2.174839
 C     2.705629     2.200356     0.637661
 H     3.719264     1.787623     0.487105
 H     2.488135     2.903471    -0.185105
 H     2.708473     2.765542     1.581159
 H     3.139586    -1.390034     0.854378
 H     3.139286    -1.766215    -0.884294
 H     4.017719    -0.320651    -0.297029
 H     1.759464     0.021677    -2.754795
 H     0.936743     1.474835    -2.113997
 H     2.737984     1.342144    -2.050030
