 100
scf done:    -4107.182337
 C    -0.805001     1.258008    -3.375073
 H    -1.896089     1.237074    -3.263750
 H    -0.490229     2.177913    -3.880362
 C    -0.203231    -0.003987    -3.895604
 H    -0.940180    -0.789684    -4.111932
 H     0.484023     0.126526    -4.741953
 H     0.466869    -0.549769    -3.102395
Co     0.307282     0.688695    -1.874582
 O     1.750929    -1.994882    -1.117437
 O     3.292541     0.049935    -1.103518
 O     1.746891    -0.509007     0.843717
 O    -1.439466    -0.308135     0.712629
 O    -2.451110     1.612172    -0.597520
 O    -2.517711    -0.671607    -1.591954
 P    -1.428974     0.301116    -0.800950
 P     1.724097    -0.411410    -0.812108
 C     1.103125     2.225524    -1.836117
 O     1.566418     3.278037    -1.774528
 C     2.168341    -3.052808    -0.250730
 H     2.738054    -3.749199    -0.886032
 H     2.847878    -2.668769     0.523070
 C     0.970433    -3.736085     0.369345
 H     1.348246    -4.555566     1.006534
 H     0.467148    -3.021168     1.041218
 C    -0.023755    -4.279075    -0.647464
 H     0.512366    -4.907527    -1.380890
 H    -0.434380    -3.431085    -1.220951
 C    -1.147268    -5.081665    -0.011632
 H    -0.755171    -5.951702     0.539561
 H    -1.721188    -4.472208     0.703012
 H    -1.853262    -5.461114    -0.766579
 C     4.373035    -0.703581    -0.714358
 C     4.916558    -1.626398    -1.606076
 H     4.461639    -1.738758    -2.591768
 C     4.929236    -0.543494     0.553855
 H     4.496389     0.181911     1.244821
 C     6.012720    -2.392775    -1.221056
 H     6.431197    -3.117486    -1.925125
 C     6.025413    -1.318483     0.923195
 H     6.453919    -1.190850     1.921201
 C     6.587542    -2.255974     0.048315
 C     7.789191    -3.063300     0.446278
 H     7.813350    -4.033267    -0.071351
 H     7.806913    -3.253368     1.529342
 H     8.723218    -2.534305     0.192492
 C     1.639967     0.566742     1.677577
 C     2.201681     1.809981     1.384246
 H     2.744419     1.965781     0.451360
 C     0.969954     0.374832     2.885339
 H     0.550776    -0.609412     3.097618
 C     2.062556     2.855728     2.294268
 H     2.504463     3.824835     2.047831
 C     0.839640     1.431196     3.780248
 H     0.306419     1.268892     4.721389
 C     1.372087     2.697000     3.499310
 C     1.176286     3.849045     4.441504
 H     1.985400     4.587890     4.348588
 H     1.137817     3.514907     5.488658
 H     0.228192     4.373393     4.231950
 C    -2.318889     0.037424     1.786357
 H    -1.694091     0.518364     2.556767
 H    -3.055425     0.776570     1.441514
 C    -3.012029    -1.181495     2.352881
 H    -3.652289    -0.834491     3.183618
 H    -3.693825    -1.597517     1.595544
 C    -2.069545    -2.269827     2.840509
 H    -1.441530    -1.878776     3.661234
 H    -1.376278    -2.520494     2.021771
 C    -2.800708    -3.519773     3.300521
 H    -3.475316    -3.303568     4.144784
 H    -3.418377    -3.933485     2.486861
 H    -2.102395    -4.306698     3.623953
 C    -1.938552     2.876279    -0.467041
 C    -1.073515     3.206988     0.575365
 H    -0.770815     2.451139     1.302697
 C    -2.304670     3.840835    -1.402494
 H    -2.977477     3.559493    -2.214529
 C    -0.574265     4.502642     0.663808
 H     0.113147     4.747293     1.477082
 C    -1.799572     5.132824    -1.296094
 H    -2.087841     5.881717    -2.039017
 C    -0.918095     5.486779    -0.268162
 C    -0.321708     6.862065    -0.194670
 H    -0.125057     7.162775     0.845018
 H    -0.981140     7.615567    -0.649392
 H     0.639985     6.897945    -0.733664
 C    -3.656708    -1.216088    -1.069095
 C    -4.751084    -0.431207    -0.706929
 H    -4.696085     0.650121    -0.836135
 C    -3.717132    -2.602295    -0.926936
 H    -2.853751    -3.196210    -1.227864
 C    -5.884063    -1.042523    -0.172928
 H    -6.735625    -0.420248     0.116190
 C    -4.857446    -3.197031    -0.397966
 H    -4.888203    -4.284708    -0.285777
 C    -5.959431    -2.429083     0.000986
 C    -7.167422    -3.075439     0.614885
 H    -7.442162    -4.001052     0.086952
 H    -8.036988    -2.403259     0.597521
 H    -6.980107    -3.345863     1.667557
