  96
scf done:    -3806.357155
 C    -0.299645     1.458311    -3.232092
 H    -0.286712     1.256416    -4.309677
 H    -1.223761     1.983429    -2.954351
 C     0.935641     2.092717    -2.686972
 H     1.728829     2.271171    -3.426015
 H     0.759310     3.005175    -2.099873
 H     1.472858     1.427528    -1.885689
Co     0.387078     0.063008    -2.050306
 O    -1.727489     1.611100    -0.265094
 C    -2.897213    -0.175308    -2.066635
 C    -1.694063    -1.085408     0.448219
 O     1.142821    -2.472613    -0.326697
 C     3.374689    -1.234734    -1.463092
 C     2.033518    -0.275489     1.001198
 P     1.690488    -0.950405    -0.695726
 P    -1.416052     0.125175    -0.950346
 C     0.464569    -1.126102    -3.299164
 O     0.332434    -1.953352    -4.097830
 C    -2.971872     2.188516     0.076098
 H    -3.549116     2.385861    -0.847052
 H    -3.563534     1.507846     0.708606
 C    -2.706165     3.491257     0.798151
 H    -3.672942     3.903357     1.136560
 H    -2.128263     3.266028     1.710692
 C    -1.964941     4.514478    -0.050497
 H    -2.581649     4.771917    -0.930104
 H    -1.055512     4.039906    -0.453825
 C    -1.601798     5.777274     0.712598
 H    -2.498741     6.283719     1.104500
 H    -0.954913     5.548268     1.575252
 H    -1.065524     6.497667     0.076062
 H    -2.460139    -0.782817    -2.872478
 H    -3.126544     0.801974    -2.517459
 C    -4.129527    -0.840202    -1.536465
 C    -5.235043    -0.114646    -1.074781
 H    -5.217663     0.975842    -1.115614
 C    -4.204735    -2.241051    -1.501805
 H    -3.369233    -2.829565    -1.892241
 C    -6.360599    -0.760769    -0.569114
 H    -7.208472    -0.169777    -0.214386
 C    -5.326181    -2.892006    -0.992530
 H    -5.357409    -3.984145    -0.975463
 C    -6.408441    -2.153002    -0.515626
 H    -7.289856    -2.660243    -0.116604
 H    -0.689995    -1.444425     0.703899
 H    -2.215567    -1.953631     0.021381
 C    -2.404657    -0.576933     1.662171
 C    -3.724703    -0.950216     1.943867
 H    -4.241259    -1.641861     1.274838
 C    -1.760184     0.306824     2.539621
 H    -0.732723     0.618227     2.335509
 C    -4.389180    -0.435924     3.055349
 H    -5.421544    -0.735992     3.251539
 C    -2.422601     0.820803     3.651176
 H    -1.903174     1.513820     4.317698
 C    -3.744203     0.457045     3.910053
 H    -4.266500     0.863283     4.779542
 C     1.858764    -3.578474     0.181432
 H     1.329225    -4.467313    -0.199209
 H     2.875943    -3.613719    -0.248305
 C     1.930164    -3.645919     1.697287
 H     2.457734    -4.582629     1.952771
 H     2.565207    -2.832956     2.087356
 C     0.577775    -3.614506     2.394350
 H    -0.047819    -4.438924     2.009272
 H     0.046876    -2.689827     2.119279
 C     0.683918    -3.702966     3.907328
 H     1.174839    -4.637124     4.224959
 H     1.274412    -2.865830     4.313562
 H    -0.307963    -3.667159     4.381770
 H     3.328000    -0.633730    -2.381198
 H     3.360172    -2.285335    -1.798023
 C     4.624148    -0.910892    -0.703870
 C     5.090984    -1.706668     0.351222
 H     4.545334    -2.610079     0.634140
 C     5.362142     0.229680    -1.044658
 H     5.011144     0.865264    -1.861716
 C     6.249263    -1.367346     1.047773
 H     6.593330    -2.003190     1.867090
 C     6.523489     0.569323    -0.355839
 H     7.078879     1.465866    -0.641023
 C     6.970004    -0.225533     0.698420
 H     7.878564     0.039914     1.243759
 H     2.827691    -0.869719     1.472827
 H     1.101668    -0.475794     1.554107
 C     2.380148     1.183477     1.061905
 C     1.421477     2.167832     0.782600
 H     0.405020     1.882736     0.500806
 C     3.672049     1.587507     1.418652
 H     4.426892     0.831887     1.648380
 C     1.756848     3.519158     0.850637
 H     0.996120     4.272737     0.634395
 C     4.006145     2.938182     1.483235
 H     5.022019     3.229353     1.761405
 C     3.049713     3.910374     1.195969
 H     3.308511     4.970745     1.247636
