  70
scf done:    -5552.212740
 C    -0.125645     1.536554     3.911385
 H     0.503315     2.240383     4.467935
 H    -1.189647     1.746077     4.065718
 C     0.278490     0.107452     4.019804
 H     1.193075    -0.074371     4.598735
 H    -0.525661    -0.563939     4.354156
 H     0.522337    -0.372214     2.976344
Co     0.418929     1.129276     2.083681
 O    -2.761557     1.556490     2.268916
 O    -1.768736     2.494838     0.208142
 O    -2.083912    -0.032781     0.378281
 O     2.581444     1.169282    -0.235147
 O     2.639328    -0.856326     1.378155
 O     1.089441    -0.733161    -0.640363
 P     1.613324     0.221296     0.625328
 P    -1.513316     1.238778     1.291495
 C     1.332598     2.586763     2.083214
 O     1.864697     3.607495     2.098355
 C    -3.987271     2.200071     1.964443
 H    -3.851500     2.962349     1.184839
 H    -4.736740     1.466585     1.632019
 H    -4.336775     2.681664     2.888210
 C    -0.806459     2.804969    -0.711769
 C    -0.116863     4.010272    -0.589543
 H    -0.337961     4.663864     0.255217
 C    -0.525071     1.939173    -1.770319
 H    -1.057027     0.990513    -1.846896
 C     0.859680     4.350672    -1.518630
 H     1.419994     5.281401    -1.420373
 C     0.442638     2.281527    -2.709099
 H     0.672530     1.612627    -3.539860
 C     1.133605     3.483015    -2.574264
Cl     2.376356     3.886363    -3.717035
 C    -3.354379    -0.244059    -0.073485
 C    -3.912556     0.532414    -1.091258
 H    -3.351053     1.369338    -1.506461
 C    -4.075563    -1.308032     0.469353
 H    -3.614362    -1.907766     1.254680
 C    -5.190953     0.242684    -1.561165
 H    -5.638387     0.842664    -2.355196
 C    -5.348310    -1.605891    -0.003205
 H    -5.909574    -2.447255     0.405420
 C    -5.902774    -0.825784    -1.018069
Cl    -7.488659    -1.191643    -1.613114
 C     3.256661     0.885787    -1.453694
 H     2.660087     0.216975    -2.087556
 H     3.400873     1.843757    -1.968461
 H     4.233194     0.423949    -1.249701
 C     3.764678    -1.378061     0.795899
 C     5.001861    -0.809835     1.099960
 H     5.038896     0.041807     1.781453
 C     3.681822    -2.468431    -0.070096
 H     2.710140    -2.912660    -0.291118
 C     6.161122    -1.320520     0.525352
 H     7.135067    -0.883702     0.751415
 C     4.840251    -2.981480    -0.646902
 H     4.791341    -3.832748    -1.327641
 C     6.073853    -2.402684    -0.351147
Cl     7.514015    -3.038235    -1.073127
 C     0.157446    -1.720655    -0.536827
 C    -0.654278    -1.949656    -1.649256
 H    -0.501734    -1.347549    -2.546560
 C    -0.002075    -2.492209     0.615860
 H     0.655466    -2.342265     1.472987
 C    -1.657892    -2.907839    -1.597906
 H    -2.315434    -3.072328    -2.452652
 C    -1.010657    -3.451386     0.669739
 H    -1.155264    -4.049040     1.571284
 C    -1.842707    -3.645895    -0.428873
Cl    -3.139331    -4.792367    -0.333629
