 108
scf done:    -3963.501063
 C    -0.094639     0.464477    -3.610875
 H    -0.091759    -0.123728    -4.536341
 H    -1.008194     1.069835    -3.544468
 C     1.156986     1.233503    -3.343648
 H     1.931282     1.135627    -4.117687
 H     0.996827     2.295328    -3.109342
 H     1.721060     0.856362    -2.392244
Co     0.566439    -0.396137    -1.983570
 O    -1.741152     1.671712    -1.129808
 C    -2.653379    -0.784550    -2.028608
 C    -1.608018    -0.392105     0.738346
 O     1.115072    -2.206089     0.505220
 C     3.449443    -1.579620    -0.846295
 C     2.131497     0.211890     1.123715
 P     1.779538    -0.923075    -0.306206
 P    -1.285286     0.068946    -1.051948
 C     0.690465    -1.933816    -2.759899
 O     0.608239    -2.970521    -3.268029
 C    -3.077776     2.137026    -1.089039
 H    -3.537142     2.029868    -2.090503
 H    -3.679738     1.541426    -0.382789
 C    -3.094013     3.591978    -0.677829
 H    -2.557678     3.690600     0.278797
 H    -2.526630     4.182064    -1.418125
 C    -4.506834     4.135646    -0.526935
 H    -5.048717     3.515930     0.209146
 H    -5.052263     4.022201    -1.481000
 C    -4.540561     5.590503    -0.088507
 H    -4.038432     5.721522     0.883588
 H    -4.025936     6.240537    -0.814265
 H    -5.571879     5.959774     0.017187
 H    -3.112322     0.004603    -2.640891
 H    -2.092241    -1.421558    -2.724640
 C    -3.707594    -1.577191    -1.325223
 C    -4.996939    -1.059523    -1.162945
 H    -5.221376    -0.065792    -1.558852
 C    -3.417413    -2.870783    -0.837179
 C    -2.080671    -3.508210    -1.084141
 H    -1.232882    -2.877268    -0.774567
 H    -1.927589    -3.703546    -2.158090
 H    -1.996500    -4.467609    -0.555960
 C    -5.990392    -1.776678    -0.501927
 H    -6.988561    -1.348253    -0.385753
 C    -4.419627    -3.569027    -0.154707
 H    -4.194212    -4.565534     0.235398
 C    -5.695193    -3.033351     0.020086
 H    -6.458617    -3.604513     0.553612
 H    -1.865506    -1.458850     0.711743
 H    -0.620104    -0.338495     1.211243
 C    -2.622794     0.353684     1.552729
 C    -3.880453    -0.217566     1.781719
 H    -4.087742    -1.213440     1.387583
 C    -2.329197     1.611771     2.122613
 C    -0.963726     2.221393     2.009571
 H    -0.613750     2.247126     0.969631
 H    -0.224077     1.650505     2.596084
 H    -0.953236     3.250485     2.394320
 C    -4.868131     0.459140     2.491012
 H    -5.844124    -0.008551     2.640324
 C    -3.334930     2.280865     2.828437
 H    -3.111587     3.262210     3.256752
 C    -4.601330     1.726615     3.002183
 H    -5.368008     2.276191     3.553686
 C     1.661374    -2.827083     1.656787
 H     1.880852    -3.878395     1.397903
 H     2.616011    -2.359311     1.948522
 C     0.670923    -2.761492     2.803131
 H     1.151664    -3.168734     3.709969
 H     0.458597    -1.699749     3.019916
 C    -0.631112    -3.498599     2.518610
 H    -0.429834    -4.583793     2.481296
 H    -0.972184    -3.223935     1.509563
 C    -1.728280    -3.201444     3.526492
 H    -1.423640    -3.469917     4.551095
 H    -1.986853    -2.130068     3.526001
 H    -2.648495    -3.758662     3.294271
 H     3.313030    -2.671832    -0.796910
 H     3.481271    -1.332071    -1.915982
 C     4.722962    -1.172333    -0.172133
 C     5.262036    -1.958613     0.854078
 H     4.731200    -2.863889     1.161692
 C     5.426575    -0.024631    -0.598415
 C     4.908931     0.836828    -1.711453
 H     3.908812     1.236071    -1.484003
 H     4.828400     0.272426    -2.655197
 H     5.571743     1.694395    -1.886298
 C     6.470531    -1.632356     1.465042
 H     6.871331    -2.266874     2.258833
 C     6.639826     0.287735     0.023976
 H     7.184960     1.175703    -0.307047
 C     7.164548    -0.500391     1.045473
 H     8.115463    -0.230582     1.510716
 H     1.166829     0.270334     1.652646
 H     2.832550    -0.292935     1.800136
 C     2.613363     1.596963     0.794979
 C     1.899664     2.381212    -0.119849
 H     0.998584     1.967319    -0.578131
 C     3.752982     2.139329     1.425354
 C     4.482471     1.401697     2.509759
 H     4.819217     0.406603     2.186794
 H     3.837612     1.260928     3.393115
 H     5.371070     1.960294     2.832769
 C     2.327612     3.659063    -0.469063
 H     1.752660     4.246785    -1.188513
 C     4.175447     3.420117     1.052183
 H     5.066451     3.837472     1.529333
 C     3.484979     4.174958     0.106768
 H     3.841757     5.171979    -0.162706
