  80
scf done:    -5558.951513
 C     0.045043     2.353849     1.620849
 H    -0.145792     3.347397     1.201346
 H    -0.436708     2.237817     2.599872
 C     1.431874     1.867906     1.502887
 H     2.119938     2.527424     0.959149
 H     1.891078     1.523406     2.441855
 H     1.492108     0.835547     0.901825
Co    -0.080188     0.865538     0.353353
 C    -0.002024    -0.757094     3.403803
 O    -2.245907     0.318303     2.585296
 O    -1.624883    -1.955350     1.718884
 C    -0.484928    -0.297059    -2.874822
 O     1.752428     0.964037    -2.291180
 O     1.526052    -1.404682    -1.518214
 P     0.633719     0.012823    -1.454245
 P    -0.937111    -0.425091     1.853241
 C    -1.250785     1.790786    -0.485514
 O    -2.017825     2.455839    -1.035310
 H     0.392413     0.235931     3.686146
 C    -0.860601    -1.292972     4.540787
 H    -0.241692    -1.445582     5.439113
 H    -1.675624    -0.601418     4.791037
 H    -1.306251    -2.260009     4.264537
 C     1.169347    -1.678744     3.075159
 H     1.765741    -1.315948     2.223873
 H     1.842952    -1.768727     3.940875
 H     0.810010    -2.690224     2.829783
 C    -3.192679     0.979521     1.864017
 C    -3.500676     2.292652     2.219818
 H    -2.973760     2.750640     3.058511
 C    -3.856605     0.375562     0.793916
 H    -3.618561    -0.651787     0.519067
 C    -4.459874     3.003784     1.507014
 H    -4.702366     4.033330     1.774570
 C    -4.809932     1.086034     0.072486
 H    -5.321643     0.625277    -0.773700
 C    -5.105816     2.399688     0.429213
Cl    -6.284214     3.291105    -0.475151
 C    -1.698384    -2.783337     0.651040
 C    -2.957756    -3.229814     0.237391
 H    -3.845041    -2.879667     0.768078
 C    -0.551894    -3.259552     0.016883
 H     0.426395    -2.930788     0.365509
 C    -3.071747    -4.128939    -0.817189
 H    -4.050872    -4.479916    -1.146598
 C    -0.662067    -4.158214    -1.039819
 H     0.226084    -4.531659    -1.551401
 C    -1.920120    -4.585167    -1.459024
Cl    -2.053309    -5.686245    -2.789720
 H    -0.711357     0.745931    -3.166028
 C     0.210317    -0.991358    -4.038160
 H    -0.453226    -0.994348    -4.916560
 H     1.145754    -0.484431    -4.312314
 H     0.444392    -2.034835    -3.783296
 C    -1.787727    -0.973043    -2.472383
 H    -2.271304    -0.466282    -1.625947
 H    -2.487912    -0.956265    -3.321456
 H    -1.622923    -2.022106    -2.195610
 C     2.211675     2.180537    -1.893127
 C     3.582756     2.333858    -1.671597
 H     4.244718     1.483749    -1.846238
 C     1.357805     3.275222    -1.733319
 H     0.296530     3.179977    -1.958909
 C     4.095067     3.556036    -1.245110
 H     5.164531     3.680554    -1.068304
 C     1.864341     4.496082    -1.297875
 H     1.201549     5.352388    -1.163665
 C     3.228753     4.628871    -1.039921
Cl     3.854946     6.145315    -0.484662
 C     2.547954    -1.712305    -0.682193
 C     3.329506    -0.752960    -0.030509
 H     3.172768     0.307651    -0.216472
 C     2.826787    -3.068259    -0.479100
 H     2.243005    -3.813277    -1.020342
 C     4.338073    -1.143570     0.847299
 H     4.941301    -0.392169     1.359375
 C     3.834173    -3.461977     0.393190
 H     4.043071    -4.520419     0.555814
 C     4.579933    -2.496171     1.069648
Cl     5.818988    -2.981760     2.177227
