  82
scf done:    -3871.479919
 C     1.563594    -2.990097    -0.104274
 H     1.939642    -3.632070    -0.908257
 H     2.376388    -2.733624     0.584935
 C     0.296194    -3.432345     0.539326
 H    -0.144959    -4.347396     0.123121
 H     0.336325    -3.496144     1.636003
 H    -0.566841    -2.649996     0.419270
Co     0.327501    -1.570161    -0.624524
 O     0.886086     0.052766     2.104216
 O     2.940716    -0.277153     0.820927
 O     1.263443     1.412436    -0.053677
 O    -1.969652    -0.353471    -2.480261
 O    -2.876885    -1.311320    -0.412499
 O    -1.642774     0.909260    -0.271953
 P    -1.482308    -0.583610    -0.958198
 P     1.298089    -0.138916     0.539915
 C     0.736409    -1.787497    -2.293384
 O     1.095115    -1.869209    -3.383441
 C     1.723077     0.534576     3.142473
 H     1.072268     0.747362     4.001132
 H     2.464579    -0.228818     3.420437
 H     2.247480     1.457678     2.856532
 C     3.848903    -0.674279    -0.120141
 C     3.701146    -0.372726    -1.473215
 H     2.838319     0.204745    -1.806594
 C     4.957358    -1.395791     0.350780
 C     5.082119    -1.700627     1.811710
 H     5.104201    -0.777660     2.412282
 H     4.219561    -2.286407     2.169912
 H     5.996649    -2.272228     2.020040
 C     4.657745    -0.812340    -2.385294
 H     4.529003    -0.587530    -3.446266
 C     5.907682    -1.811179    -0.584340
 H     6.776656    -2.374742    -0.233447
 C     5.763942    -1.532665    -1.943306
 H     6.517698    -1.877716    -2.654336
 C     1.294553     2.573022     0.680023
 C     0.172600     2.953866     1.415882
 H    -0.697965     2.299423     1.415566
 C     2.441853     3.379421     0.620080
 C     3.628217     2.961791    -0.191868
 H     4.394904     3.748159    -0.201485
 H     4.081806     2.041654     0.205846
 H     3.341740     2.741561    -1.231334
 C     0.187902     4.148375     2.130466
 H    -0.691812     4.444023     2.706742
 C     2.425235     4.576647     1.343564
 H     3.308569     5.220311     1.308053
 C     1.318339     4.962030     2.097822
 H     1.337485     5.902836     2.652550
 C    -3.306974    -0.329317    -2.954747
 H    -3.779090    -1.313919    -2.826901
 H    -3.910054     0.432268    -2.439920
 H    -3.251002    -0.086531    -4.023718
 C    -3.047559    -1.836694     0.838442
 C    -2.341704    -1.375287     1.951200
 H    -1.606219    -0.575230     1.852508
 C    -3.986373    -2.875974     0.944915
 C    -4.718584    -3.343548    -0.274686
 H    -5.314848    -2.529252    -0.715973
 H    -4.015000    -3.674833    -1.054821
 H    -5.392787    -4.177211    -0.036608
 C    -2.564572    -1.964992     3.194942
 H    -2.003412    -1.607528     4.061273
 C    -4.193831    -3.437383     2.206235
 H    -4.921761    -4.247243     2.305560
 C    -3.490987    -2.994951     3.327060
 H    -3.668959    -3.456520     4.300703
 C    -2.652170     1.802744    -0.547059
 C    -3.846924     1.725529     0.164776
 H    -3.967431     0.941268     0.914522
 C    -2.418579     2.795655    -1.509943
 C    -1.118768     2.844342    -2.251843
 H    -0.269814     2.706314    -1.568227
 H    -1.059431     2.026717    -2.987815
 H    -1.003479     3.798933    -2.782358
 C    -4.859346     2.646580    -0.094571
 H    -5.799698     2.590268     0.458389
 C    -3.452186     3.708002    -1.744614
 H    -3.297156     4.494638    -2.488020
 C    -4.661677     3.637521    -1.054336
 H    -5.448988     4.365749    -1.261860
