  90
scf done:    -3727.808470
 C     1.181536    -2.288907    -2.942685
 H     1.253462    -2.041271    -4.008213
 H     2.156652    -2.641125    -2.583152
 C     0.026709    -3.164981    -2.583596
 H    -0.646451    -3.407234    -3.417317
 H     0.298884    -4.089544    -2.052727
 H    -0.687513    -2.656928    -1.800808
Co     0.123023    -1.107029    -1.805055
 O     1.578638    -1.899228     1.093932
 C     3.362458    -0.981199    -0.816281
 C     1.629523     0.673849     0.756906
 O    -1.270207     1.224815    -0.259154
 C    -3.098727    -0.349405    -1.752006
 C    -2.056394    -1.219076     0.847993
 P    -1.543954    -0.324212    -0.711754
 P     1.596618    -0.873964    -0.256406
 C    -0.029049     0.042181    -3.072491
 O    -0.060397     0.862943    -3.888223
 C     1.113862    -3.233282     0.971783
 H     0.234610    -3.230590     0.297466
 C     0.689114    -3.689055     2.353571
 H    -0.082321    -3.024261     2.768400
 H     1.549852    -3.679201     3.039833
 H     0.284454    -4.711547     2.320019
 C     2.169723    -4.141636     0.363951
 H     2.402730    -3.847376    -0.669330
 H     3.099987    -4.103911     0.951724
 H     1.817076    -5.183863     0.341202
 H     3.383317    -0.383269    -1.740688
 H     3.508127    -2.025424    -1.134421
 C     4.465918    -0.555614     0.107885
 C     4.564489    -1.030009     1.423469
 H     3.799303    -1.711128     1.799368
 C     5.443453     0.337505    -0.348561
 H     5.370923     0.731550    -1.365578
 C     5.602647    -0.613121     2.254846
 H     5.656597    -0.988729     3.279953
 C     6.486583     0.747751     0.477346
 H     7.233780     1.448913     0.097453
 C     6.568872     0.276622     1.786693
 H     7.382888     0.600721     2.439661
 H     2.212193     0.436124     1.658339
 H     0.588482     0.860621     1.056497
 C     2.195035     1.881179     0.068035
 C     1.617701     2.384968    -1.104940
 H     0.736318     1.891216    -1.509840
 C     3.315734     2.535392     0.592758
 H     3.786916     2.146389     1.499279
 C     2.153067     3.502954    -1.740171
 H     1.691041     3.868591    -2.660806
 C     3.846862     3.659929    -0.035581
 H     4.724246     4.152343     0.391150
 C     3.270464     4.146096    -1.208035
 H     3.690635     5.023727    -1.705615
 C    -2.154532     2.316240     0.014767
 H    -3.145742     1.919679     0.285055
 C    -2.252036     3.183181    -1.227225
 H    -2.588018     2.608416    -2.102179
 H    -1.265882     3.607897    -1.467365
 H    -2.957426     4.012541    -1.066007
 C    -1.583751     3.073045     1.194901
 H    -1.544321     2.433946     2.086139
 H    -0.565277     3.419390     0.961000
 H    -2.208075     3.949669     1.423642
 H    -2.996157    -1.311690    -2.278905
 H    -2.935098     0.422993    -2.519269
 C    -4.456050    -0.247557    -1.125572
 C    -5.127783     0.976466    -1.007016
 H    -4.676418     1.879580    -1.422224
 C    -5.096325    -1.396003    -0.637588
 H    -4.620061    -2.372228    -0.766489
 C    -6.366171     1.058375    -0.374772
 H    -6.866670     2.026071    -0.291641
 C    -6.334444    -1.319070    -0.003132
 H    -6.807462    -2.228824     0.373960
 C    -6.969472    -0.087149     0.143323
 H    -7.938816    -0.022366     0.642575
 H    -1.239247    -1.928060     1.028917
 H    -2.954933    -1.806707     0.610692
 C    -2.277350    -0.387056     2.073823
 C    -3.524113     0.185172     2.356927
 H    -4.362824     0.018824     1.676462
 C    -1.220873    -0.173476     2.968853
 H    -0.245738    -0.620925     2.758705
 C    -3.704771     0.959128     3.501043
 H    -4.684698     1.397267     3.705695
 C    -1.403270     0.597539     4.115386
 H    -0.567066     0.752378     4.801413
 C    -2.645683     1.169904     4.384221
 H    -2.789843     1.776228     5.281487
