  80
scf done:    -3197.088870
 C     1.003173    -3.514625     0.279448
 H     1.648985    -3.957531     1.047136
 H     0.064203    -4.076043     0.218108
 C     1.669479    -3.286994    -1.038485
 H     2.731281    -3.569224    -1.076780
 H     1.143315    -3.730532    -1.897661
 H     1.688879    -2.155055    -1.339944
Co     1.003899    -1.565709     0.158931
 O    -1.380272    -0.304573    -1.555501
 C    -2.121181    -2.821223    -0.724078
 C    -2.005193    -0.486291     1.193346
 O     0.714782     1.578380     0.316636
 C     3.398000     0.788544     0.106512
 C     1.470485     0.869330    -2.209872
 P     1.644378     0.408427    -0.414624
 P    -1.115415    -1.310665    -0.238770
 C     1.662127    -1.417443     1.724410
 O     2.005127    -1.300742     2.828676
 C    -2.451386     0.539237    -1.913928
 H    -2.464788     0.568605    -3.018027
 H    -3.423091     0.120519    -1.608072
 C    -2.284076     1.946765    -1.374439
 H    -2.198548     1.909095    -0.276979
 H    -1.322555     2.347849    -1.730710
 C    -3.420640     2.875838    -1.771306
 H    -4.377899     2.464591    -1.402850
 H    -3.511496     2.900006    -2.871994
 C    -3.237087     4.289182    -1.241884
 H    -3.174598     4.295877    -0.141637
 H    -2.306831     4.738859    -1.624689
 H    -4.070005     4.946927    -1.532659
 H    -1.365275    -3.396317    -1.289555
 C    -2.536247    -3.673339     0.471665
 H    -2.849791    -4.673026     0.129579
 H    -1.720580    -3.807680     1.195214
 H    -3.389786    -3.229686     1.005260
 C    -3.292121    -2.583200    -1.669008
 H    -2.982066    -2.039192    -2.571332
 H    -3.710571    -3.551250    -1.991138
 H    -4.107950    -2.022329    -1.188233
 H    -1.478961     0.484944     1.189382
 C    -3.510518    -0.242732     1.112155
 H    -3.843203     0.271856     2.029124
 H    -3.815948     0.384455     0.266811
 H    -4.074335    -1.185517     1.055157
 C    -1.675589    -1.168856     2.522063
 H    -0.613047    -1.423274     2.608999
 H    -1.935372    -0.494637     3.353135
 H    -2.257627    -2.090528     2.660215
 C     1.093136     2.764584     0.979414
 H     2.082706     2.655191     1.454911
 H     1.163474     3.596799     0.254744
 C     0.058881     3.069938     2.042245
 H     0.240570     4.088537     2.427622
 H    -0.934001     3.094565     1.559124
 C     0.064948     2.063435     3.183933
 H     1.019220     2.146598     3.733057
 H     0.058505     1.046328     2.762502
 C    -1.100180     2.235110     4.142744
 H    -1.109309     3.240123     4.595383
 H    -2.063591     2.102374     3.623043
 H    -1.060738     1.501190     4.961588
 H     3.283648     0.857210     1.204875
 C     4.298287    -0.416573    -0.168328
 H     5.255362    -0.301795     0.364474
 H     3.820907    -1.349245     0.163558
 H     4.526483    -0.513079    -1.240456
 C     4.047905     2.068542    -0.409436
 H     3.432632     2.966070    -0.265620
 H     5.003868     2.234759     0.113613
 H     4.279524     1.990705    -1.481932
 H     0.458671     0.470287    -2.390890
 C     1.448790     2.360305    -2.522651
 H     1.087037     2.517544    -3.552243
 H     0.770531     2.902511    -1.849506
 H     2.442634     2.823652    -2.453223
 C     2.441005     0.106100    -3.103800
 H     2.457161    -0.970746    -2.877542
 H     2.142691     0.213013    -4.158964
 H     3.470874     0.485049    -3.017008
