  78
scf done:    -3570.665986
 C     0.440973    -1.542385     3.439622
 H    -0.048092    -2.407460     3.902822
 H     1.517075    -1.538837     3.640499
 C    -0.262950    -0.242661     3.638643
 H    -1.167535    -0.296862     4.261133
 H     0.379951     0.578297     3.988932
 H    -0.700702     0.184500     2.638834
Co    -0.080689    -1.090806     1.615555
 O     3.076034    -0.872563     2.118391
 C     2.544903    -1.332860    -0.534430
 C     2.230799     1.243641     0.688189
 O    -0.273864    -0.368891    -1.463625
 C    -2.681555    -1.133897    -0.509799
 C    -1.657838     1.489464     0.007096
 P    -1.137588    -0.271907    -0.043297
 P     1.898904    -0.537914     0.989342
 C    -0.683471    -2.683991     1.424038
 O    -0.998873    -3.787963     1.283301
 C     4.450391    -0.769902     1.848923
 H     4.775659    -1.520997     1.109860
 H     4.726717     0.232070     1.474575
 H     4.983450    -0.950399     2.793872
 C     1.991307    -2.557209    -0.918148
 H     1.178900    -2.986935    -0.329429
 C     3.575968    -0.779534    -1.303239
 H     4.005556     0.184338    -1.016882
 C     2.467301    -3.209994    -2.052507
 H     2.029960    -4.165592    -2.352296
 C     4.062045    -1.420475    -2.446677
 C     5.182193    -0.822927    -3.249002
 H     5.309505     0.246270    -3.027273
 H     6.139639    -1.322987    -3.026717
 H     5.005769    -0.929675    -4.329997
 C     3.488722    -2.644926    -2.811814
 H     3.848908    -3.160475    -3.707051
 C     2.617531     2.049238     1.768330
 H     2.881247     1.583348     2.721310
 C     1.876960     1.854950    -0.519441
 H     1.554393     1.228724    -1.353792
 C     2.657315     3.434009     1.623905
 H     2.973485     4.058515     2.463588
 C     1.884320     3.244668    -0.668223
 C     1.390259     3.871270    -1.938356
 H     1.830010     4.865416    -2.104160
 H     1.613521     3.242766    -2.812881
 H     0.294388     3.996265    -1.892640
 C     2.290354     4.028520     0.417375
 H     2.309557     5.117508     0.318874
 C    -0.704279     0.159147    -2.692317
 H    -1.717870    -0.186236    -2.959638
 H    -0.699429     1.262671    -2.682228
 H     0.001227    -0.193844    -3.458488
 C    -2.610654    -2.238649    -1.364186
 H    -1.653859    -2.517886    -1.812200
 C    -3.902970    -0.806341     0.088800
 H    -3.957504     0.048093     0.770013
 C    -3.758437    -2.981341    -1.630002
 H    -3.704851    -3.841072    -2.302344
 C    -5.060046    -1.548400    -0.163081
 C    -6.357740    -1.204223     0.508833
 H    -6.531824    -1.855772     1.381279
 H    -6.362845    -0.165301     0.868075
 H    -7.212332    -1.337256    -0.171209
 C    -4.971127    -2.637975    -1.039003
 H    -5.866157    -3.228397    -1.254402
 C    -0.998179     2.353237     0.885284
 H    -0.229143     1.961469     1.553163
 C    -2.631625     2.012702    -0.857226
 H    -3.167344     1.343122    -1.535273
 C    -1.307444     3.712029     0.894405
 H    -0.781663     4.379546     1.580609
 C    -2.951051     3.372273    -0.863046
 C    -3.992865     3.920881    -1.794829
 H    -3.556591     4.650443    -2.495966
 H    -4.461563     3.123284    -2.387875
 H    -4.789061     4.442922    -1.241116
 C    -2.270852     4.216111     0.027054
 H    -2.507603     5.284141     0.040211
