  78
scf done:    -3419.382448
 C    -1.092153    -1.873341    -2.420906
 H    -0.788942    -2.898181    -2.665563
 H    -2.181657    -1.770260    -2.409462
 C    -0.340023    -0.806532    -3.135202
 H     0.427395    -1.167048    -3.834825
 H    -0.974865    -0.052730    -3.622631
 H     0.286245    -0.122775    -2.405505
Co    -0.132389    -1.007822    -0.957996
 O    -2.221617     1.596986    -0.638603
 O    -3.258633    -0.621605    -0.688919
 O    -2.025479     0.227952     1.390947
 O     1.711251    -0.036548     1.553082
 O     3.034687    -0.597151    -0.432267
 O     1.657602     1.535316    -0.441479
 P     1.520160    -0.053507    -0.066869
 P    -1.842636     0.045445    -0.238005
 C     0.148805    -2.553326    -0.284424
 O     0.221501    -3.600857     0.201821
 C    -1.394138     2.669822    -0.188243
 H    -0.508051     2.250971     0.316152
 C    -2.181111     3.498955     0.806090
 H    -2.487432     2.868699     1.652570
 H    -3.084499     3.913867     0.332105
 H    -1.574013     4.334517     1.187856
 C    -0.929079     3.444257    -1.403226
 H    -0.326944     2.795130    -2.054372
 H    -1.793364     3.818709    -1.973444
 H    -0.309326     4.304425    -1.106962
 C    -4.533828    -0.062798    -0.346790
 H    -4.390041     0.657097     0.476421
 C    -5.413535    -1.200590     0.127225
 H    -4.973486    -1.691783     1.005916
 H    -5.524595    -1.953738    -0.668057
 H    -6.413701    -0.829728     0.397843
 C    -5.093514     0.659289    -1.556252
 H    -4.408218     1.460331    -1.862801
 H    -5.217063    -0.043010    -2.395528
 H    -6.075608     1.100041    -1.325699
 C    -1.446178    -0.699592     2.310754
 H    -0.463453    -1.000198     1.914581
 C    -2.322673    -1.928161     2.448510
 H    -2.445425    -2.429099     1.477229
 H    -3.319120    -1.653575     2.829160
 H    -1.869994    -2.648744     3.146278
 C    -1.240965     0.046523     3.610356
 H    -0.584411     0.913238     3.448335
 H    -2.203213     0.404757     4.008295
 H    -0.776246    -0.608072     4.363089
 C     2.745143    -0.673676     2.319685
 H     3.705466    -0.502762     1.807703
 C     2.492759    -2.164696     2.407549
 H     2.503087    -2.624388     1.410303
 H     1.514695    -2.368944     2.869356
 H     3.272081    -2.648280     3.015533
 C     2.760064     0.009470     3.670186
 H     2.946353     1.087621     3.561861
 H     1.794824    -0.124397     4.180753
 H     3.551540    -0.416785     4.304135
 C     3.434633    -0.757617    -1.796486
 H     2.834208    -0.070090    -2.422655
 C     3.188361    -2.183013    -2.247784
 H     2.119500    -2.422998    -2.162639
 H     3.752969    -2.885573    -1.615887
 H     3.504295    -2.319750    -3.292952
 C     4.890713    -0.350132    -1.882467
 H     5.029718     0.688514    -1.549895
 H     5.503256    -1.001464    -1.240322
 H     5.258230    -0.437789    -2.915662
 C     2.700646     2.370789     0.073726
 H     3.511025     1.724575     0.454528
 C     2.152052     3.211299     1.210701
 H     1.719483     2.563523     1.985015
 H     1.367474     3.891191     0.845461
 H     2.950377     3.819219     1.662951
 C     3.227754     3.201530    -1.077665
 H     3.613907     2.557627    -1.880845
 H     2.422338     3.823700    -1.496474
 H     4.039979     3.863017    -0.740918
