  88
scf done:    -3577.414797
 C     0.237106     2.215185    -1.263847
 H     1.083967     2.350059    -1.949084
 H    -0.662977     2.733035    -1.618474
 C     0.541062     2.396350     0.170951
 H     1.584783     2.668963     0.385805
 H    -0.162764     3.041001     0.717078
 H     0.450200     1.387405     0.799729
Co    -0.027655     0.410301    -0.569007
 C    -1.925929    -1.209145     2.092268
 C    -2.465126     1.482466     1.129080
 C    -3.229035    -0.828897    -0.411434
 C     2.011962    -2.125355    -1.618157
 C     3.196471     0.492792    -1.213838
 C     2.680279    -1.164787     1.061979
 P     1.910912    -0.614283    -0.518226
 P    -1.823268    -0.135813     0.549426
 C    -0.513919    -0.001188    -2.133209
 O    -0.783751    -0.274967    -3.227350
 H    -1.206211    -0.733548     2.783749
 C    -3.295169    -1.263615     2.756161
 H    -3.233973    -1.818972     3.706895
 H    -3.701068    -0.265512     2.974144
 H    -4.018831    -1.787123     2.113312
 C    -1.417890    -2.608595     1.770464
 H    -0.418053    -2.588813     1.316828
 H    -1.367633    -3.219525     2.686244
 H    -2.097617    -3.119752     1.070226
 C    -2.278260     1.945663     2.436089
 H    -1.867542     1.288942     3.205845
 C    -2.962954     2.372320     0.165934
 H    -3.074347     2.026419    -0.866003
 C    -2.600242     3.262668     2.765023
 H    -2.447011     3.617455     3.787376
 C    -3.300092     3.689454     0.482333
 C    -3.863747     4.609220    -0.561579
 H    -3.509148     5.641231    -0.423061
 H    -3.587466     4.283557    -1.574454
 H    -4.965218     4.633196    -0.511862
 C    -3.109288     4.126647     1.800994
 H    -3.354485     5.158205     2.068376
 C    -4.559116    -0.430910    -0.213979
 H    -4.794674     0.350781     0.510865
 C    -2.959852    -1.831703    -1.346300
 H    -1.926357    -2.140259    -1.519531
 C    -5.579229    -1.025629    -0.949758
 H    -6.613656    -0.707692    -0.796808
 C    -3.975017    -2.442111    -2.091897
 C    -3.631137    -3.495436    -3.104177
 H    -2.947387    -3.091000    -3.867320
 H    -3.120405    -4.350369    -2.633326
 H    -4.526927    -3.875296    -3.614962
 C    -5.290914    -2.023033    -1.881187
 H    -6.100066    -2.478572    -2.458759
 H     1.614458    -1.741195    -2.573873
 C     3.398184    -2.703247    -1.854537
 H     3.353922    -3.475678    -2.639833
 H     4.119196    -1.937581    -2.177100
 H     3.787149    -3.185567    -0.945343
 C     1.037638    -3.176292    -1.103781
 H     0.039184    -2.742378    -0.957255
 H     0.957499    -4.013770    -1.814754
 H     1.372446    -3.586487    -0.137271
 C     3.239437     0.715191    -2.598367
 H     2.581264     0.155309    -3.267437
 C     4.017698     1.267776    -0.386366
 H     3.986013     1.115389     0.696145
 C     4.112133     1.659876    -3.128836
 H     4.148651     1.815505    -4.209952
 C     4.889699     2.232227    -0.905281
 C     5.733569     3.068247     0.013366
 H     6.017276     2.511059     0.918160
 H     6.653339     3.410840    -0.482430
 H     5.184606     3.966732     0.342111
 C     4.934397     2.411971    -2.291253
 H     5.616181     3.152460    -2.718437
 C     4.019955    -1.559349     1.205056
 H     4.701291    -1.512990     0.353795
 C     1.852175    -1.183243     2.184361
 H     0.822031    -0.841062     2.054806
 C     4.488097    -1.981779     2.444795
 H     5.531803    -2.286596     2.556063
 C     2.303879    -1.611456     3.439114
 C     1.367978    -1.630688     4.612743
 H     0.916437    -0.639731     4.778464
 H     0.539401    -2.337702     4.445214
 H     1.881871    -1.927266     5.537739
 C     3.636026    -2.014859     3.550917
 H     4.017906    -2.350450     4.519280
