  94
scf done:    -4028.624255
 C     2.697334    -0.139870    -3.071940
 H     3.718373    -0.221261    -2.677433
 H     2.596155    -0.747716    -3.977627
 C     2.157350     1.247102    -3.164454
 H     2.855763     2.036189    -2.852781
 H     1.713619     1.501175    -4.136171
 H     1.260016     1.432360    -2.436568
Co     1.205434    -0.203588    -1.816441
 O    -0.606875     1.128403     0.667175
 O    -1.323977     1.548599    -1.724558
 O    -1.651135    -0.746658    -0.605717
 O     3.147346    -2.354988    -0.868179
 O     3.991321    -0.226629    -0.010505
 O     2.108682    -1.264654     1.182987
 P     2.526038    -0.930541    -0.411356
 P    -0.534281     0.420217    -0.798287
 C     0.399799    -1.475740    -2.689811
 O    -0.059770    -2.411807    -3.175266
 C     0.497455     1.824092     1.265541
 H     1.327899     1.107389     1.364074
 C     0.034425     2.244235     2.642245
 H    -0.333484     1.376429     3.206597
 H    -0.781108     2.980471     2.569086
 H     0.868105     2.700373     3.196202
 C     0.957900     2.991408     0.417480
 H     1.319023     2.640734    -0.558677
 H     0.146926     3.717870     0.258729
 H     1.798471     3.498500     0.911834
 C    -2.619894     1.938460    -1.473428
 C    -2.896347     2.951386    -0.559724
 H    -2.072905     3.459549    -0.058371
 C    -3.660753     1.292628    -2.137934
 H    -3.421804     0.506779    -2.856473
 C    -4.220822     3.277649    -0.277911
 H    -4.432441     4.064357     0.451582
 C    -4.977162     1.624220    -1.841660
 H    -5.787483     1.091834    -2.346810
 C    -5.283324     2.608379    -0.893557
 C    -6.708216     2.902203    -0.525578
 H    -6.808199     3.882998    -0.039151
 H    -7.091094     2.143155     0.177597
 H    -7.366081     2.889181    -1.407388
 C    -2.896296    -0.839852    -0.044483
 C    -3.742208    -1.794152    -0.608968
 H    -3.364907    -2.397844    -1.436558
 C    -3.331054    -0.069692     1.031375
 H    -2.656122     0.653333     1.484162
 C    -5.037784    -1.943302    -0.127085
 H    -5.693560    -2.690067    -0.583698
 C    -4.635198    -0.228304     1.493677
 H    -4.974450     0.392564     2.327720
 C    -5.517907    -1.152230     0.924172
 C    -6.934951    -1.275868     1.404866
 H    -7.289106    -2.316477     1.359289
 H    -7.619835    -0.673213     0.784176
 H    -7.041053    -0.926101     2.442011
 C     4.140999    -3.070717    -0.113905
 H     4.245789    -2.589593     0.872303
 C     5.456142    -2.982845    -0.859752
 H     5.763777    -1.933192    -0.961805
 H     5.353946    -3.420142    -1.864858
 H     6.244786    -3.528618    -0.319880
 C     3.643030    -4.488566     0.070098
 H     2.700599    -4.501103     0.635800
 H     3.468621    -4.962033    -0.908305
 H     4.384204    -5.087355     0.620381
 C     4.109217     1.020987     0.527843
 C     4.480395     2.091207    -0.285290
 H     4.642593     1.912465    -1.349976
 C     3.928835     1.222686     1.897943
 H     3.651546     0.371346     2.521104
 C     4.661737     3.355351     0.269980
 H     4.958313     4.185116    -0.377595
 C     4.110297     2.492732     2.437982
 H     3.972554     2.638410     3.513355
 C     4.474548     3.583869     1.638153
 C     4.630530     4.956753     2.225568
 H     5.328521     5.570339     1.638063
 H     5.001681     4.913553     3.259942
 H     3.665493     5.491212     2.247830
 C     0.919702    -1.850010     1.521552
 C     0.327244    -1.462093     2.723100
 H     0.834120    -0.720768     3.343495
 C     0.302173    -2.816965     0.726488
 H     0.765573    -3.138121    -0.207240
 C    -0.887490    -2.017112     3.109796
 H    -1.345659    -1.696858     4.049766
 C    -0.916079    -3.358333     1.128120
 H    -1.399495    -4.099704     0.486421
 C    -1.542019    -2.965575     2.314503
 C    -2.891031    -3.499354     2.693702
 H    -3.031666    -3.507406     3.784529
 H    -3.039823    -4.523104     2.320606
 H    -3.687432    -2.871996     2.259560
