  82
scf done:    -3871.473441
 C    -1.075514    -3.084056    -1.027335
 H    -0.955442    -4.086494    -0.601397
 H    -2.128382    -2.876765    -1.246590
 C    -0.115684    -2.734384    -2.111552
 H     0.604174    -3.523909    -2.364996
 H    -0.595883    -2.343574    -3.019626
 H     0.577653    -1.826753    -1.831999
Co    -0.022826    -1.667488    -0.196379
 O    -1.567754     1.323643    -0.170935
 O    -2.609520    -0.500538    -1.630954
 O    -2.666083    -0.589107     0.950985
 O     1.793544     0.534877     1.442274
 O     2.978884    -1.547384     0.545285
 O     2.253647     0.384625    -1.005219
 P     1.697679    -0.550832     0.224113
 P    -1.627283    -0.314030    -0.294606
 C     0.076868    -2.640933     1.213129
 O     0.049403    -3.272940     2.176939
 C    -0.638410     2.075797    -0.963100
 H     0.221841     1.425160    -1.193815
 C    -0.175379     3.235532    -0.109427
 H     0.290477     2.860966     0.812551
 H    -1.030084     3.874428     0.162301
 H     0.560286     3.846572    -0.652311
 C    -1.275955     2.509858    -2.268678
 H    -1.639740     1.640720    -2.834499
 H    -2.124151     3.188448    -2.088755
 H    -0.537638     3.041753    -2.887310
 C    -3.952589    -0.249232    -1.733948
 C    -4.488463     1.018826    -1.500755
 H    -3.830405     1.831561    -1.197789
 C    -4.782315    -1.308718    -2.101214
 H    -4.335252    -2.287811    -2.284875
 C    -5.862964     1.210299    -1.608849
 H    -6.281801     2.197899    -1.402815
 C    -6.155205    -1.103350    -2.214924
 H    -6.802898    -1.936681    -2.498157
 C    -6.701897     0.154410    -1.962993
 H    -7.779703     0.311539    -2.043133
 C    -3.774636     0.088978     1.392794
 C    -4.990797    -0.593477     1.396975
 H    -5.022268    -1.613304     1.010965
 C    -3.688622     1.391579     1.884082
 H    -2.726097     1.900602     1.878993
 C    -6.136403     0.046632     1.857478
 H    -7.090855    -0.484671     1.842936
 C    -4.844183     2.021776     2.342210
 H    -4.781027     3.045770     2.719001
 C    -6.070658     1.359362     2.325362
 H    -6.972274     1.862036     2.682263
 C     1.420790     0.150577     2.784857
 H     1.541026    -0.942832     2.879536
 C    -0.022411     0.522326     3.047414
 H    -0.699037    -0.002854     2.362092
 H    -0.168630     1.606480     2.926866
 H    -0.302757     0.245515     4.074277
 C     2.386182     0.834074     3.729276
 H     3.418756     0.499092     3.560456
 H     2.344121     1.925832     3.593982
 H     2.121075     0.604673     4.771581
 C     4.316075    -1.297783     0.367932
 C     4.973266    -0.270451     1.044837
 H     4.410438     0.374429     1.717919
 C     5.013430    -2.126182    -0.510487
 H     4.471618    -2.927624    -1.016034
 C     6.328910    -0.056290     0.812069
 H     6.836486     0.762709     1.326477
 C     6.371690    -1.909136    -0.728830
 H     6.916520    -2.556970    -1.419805
 C     7.032661    -0.869950    -0.074955
 H     8.095758    -0.695892    -0.254303
 C     3.319621     1.251082    -1.093865
 C     4.294654     0.977082    -2.051244
 H     4.200644     0.074483    -2.656533
 C     3.399295     2.393890    -0.299756
 H     2.624893     2.585857     0.440237
 C     5.379310     1.836911    -2.189269
 H     6.152401     1.611636    -2.927380
 C     4.490523     3.247823    -0.449602
 H     4.560820     4.139788     0.177793
 C     5.485275     2.972760    -1.386213
 H     6.339933     3.644063    -1.493975
