 100
scf done:    -4107.188417
 C     2.713835     0.622900    -0.854669
 H     3.256351    -0.281156    -0.553003
 H     2.996911     0.904883    -1.874477
 C     2.709927     1.723768     0.148447
 H     3.330646     1.529305     1.035101
 H     2.907233     2.723302    -0.259307
 H     1.667963     1.851669     0.669555
Co     0.812486     0.757160    -0.400355
 O    -1.377443     0.859302     1.935017
 O    -0.894748     3.076685     0.953085
 O    -2.367437     1.589114    -0.301067
 O    -0.544388    -1.817707     0.956390
 O     0.934390    -2.429478    -0.888232
 O     1.997064    -1.793334     1.235077
 P     0.771952    -1.216775     0.233454
 P    -0.926799     1.482831     0.518105
 C     0.438806     1.206784    -2.032341
 O     0.209396     1.428340    -3.140513
 C    -2.679926     0.952736     2.505419
 H    -2.552344     1.307602     3.540377
 H    -3.273675     1.707694     1.966159
 C    -3.353684    -0.402824     2.456371
 H    -3.260049    -0.789619     1.429657
 H    -2.797282    -1.106639     3.098278
 C    -4.821348    -0.367248     2.850600
 H    -5.340283     0.388023     2.233955
 H    -4.925992    -0.027269     3.896289
 C    -5.502159    -1.714688     2.670762
 H    -5.445614    -2.042366     1.619856
 H    -5.019225    -2.492994     3.283185
 H    -6.564367    -1.677578     2.956481
 C    -0.230651     4.008238     0.195326
 C    -0.528801     4.179992    -1.153184
 H    -1.321358     3.577647    -1.602100
 C     0.762039     4.768790     0.811663
 H     0.972704     4.610118     1.870702
 C     0.194461     5.093065    -1.928533
 C    -0.100298     5.219225    -3.394190
 H    -1.140925     5.537205    -3.565287
 H     0.562341     5.949078    -3.879381
 H     0.027930     4.247324    -3.896607
 C     1.465159     5.697394     0.050589
 H     2.246255     6.300062     0.520425
 C     1.193585     5.851239    -1.309329
 H     1.766408     6.570255    -1.900418
 C    -3.112297     0.563434    -0.822040
 C    -4.495850     0.679264    -0.692119
 H    -4.896063     1.562214    -0.188126
 C    -2.548909    -0.533030    -1.473344
 H    -1.466618    -0.614607    -1.567127
 C    -5.348195    -0.311227    -1.186971
 C    -6.832134    -0.202459    -0.988162
 H    -7.184324     0.829220    -1.135472
 H    -7.380677    -0.855178    -1.681602
 H    -7.111799    -0.499152     0.036783
 C    -3.397483    -1.512110    -1.982644
 H    -2.967800    -2.370417    -2.503226
 C    -4.779464    -1.412283    -1.838381
 H    -5.426811    -2.194753    -2.242446
 C    -0.601446    -3.096611     1.586445
 H     0.310255    -3.671070     1.358707
 H    -0.625123    -2.920344     2.674537
 C    -1.837338    -3.842026     1.136111
 H    -1.968168    -4.714565     1.800705
 H    -2.715479    -3.194061     1.299345
 C    -1.789995    -4.294630    -0.315007
 H    -0.948075    -4.995705    -0.449205
 H    -1.548969    -3.424867    -0.944634
 C    -3.086179    -4.937491    -0.777345
 H    -3.332570    -5.827942    -0.176138
 H    -3.930105    -4.234552    -0.686233
 H    -3.029056    -5.255102    -1.829965
 C     1.934202    -2.427881    -1.825790
 C     3.172757    -2.980815    -1.507539
 H     3.316876    -3.384892    -0.503434
 C     1.693845    -1.888996    -3.088128
 H     0.719068    -1.454215    -3.312333
 C     4.205613    -2.997113    -2.450193
 C     5.531894    -3.614295    -2.111305
 H     5.492870    -4.711919    -2.210273
 H     6.327387    -3.251275    -2.777424
 H     5.825287    -3.393168    -1.074167
 C     2.719709    -1.901932    -4.028762
 H     2.547323    -1.472733    -5.018587
 C     3.964144    -2.445594    -3.713896
 H     4.762751    -2.442280    -4.460351
 C     2.518737    -0.982656     2.201437
 C     3.904688    -0.964839     2.353555
 H     4.505748    -1.598728     1.697127
 C     1.703866    -0.181463     3.005906
 H     0.618896    -0.195621     2.883174
 C     4.509265    -0.140182     3.306562
 C     6.000219    -0.148549     3.482510
 H     6.519126    -0.264430     2.519525
 H     6.355336     0.778597     3.954322
 H     6.315177    -0.987441     4.125352
 C     2.306190     0.653695     3.944070
 H     1.678758     1.296935     4.565988
 C     3.691109     0.679629     4.094652
 H     4.146711     1.342690     4.834580
