  66
scf done:    -3413.522127
 C     1.024510    -2.097776     2.309511
 H     1.025711    -3.194434     2.341455
 H     2.011042    -1.705152     2.586974
 C    -0.113719    -1.447097     3.022881
 H    -0.787763    -2.142200     3.542910
 H     0.186425    -0.631089     3.694447
 H    -0.859180    -0.914815     2.292041
Co     0.052597    -1.250876     0.837657
 O     2.101091     0.856942     1.949491
 C     3.257235    -0.689328    -0.035799
 C     1.591900     1.493857    -0.638640
 O    -1.026673     0.182140    -1.762522
 C    -3.024832    -1.110447    -0.493610
 C    -2.075935     1.370532     0.527856
 P    -1.465406    -0.193365    -0.216919
 P     1.676887     0.077784     0.527408
 C    -0.121728    -2.722452    -0.050789
 O    -0.138063    -3.683592    -0.691917
 C     3.322984     1.513167     2.175256
 H     4.172755     0.811228     2.148368
 H     3.508853     2.315695     1.439716
 H     3.271061     1.964389     3.177175
 C     3.385870    -2.081928    -0.002504
 C     4.335121     0.076110    -0.506553
 C     5.637611    -1.925984    -0.862126
 C     5.517873    -0.536923    -0.911584
 C     4.568046    -2.696659    -0.411428
 H     2.537877    -2.679655     0.335467
 H     4.648555    -3.785963    -0.384340
 H     6.563769    -2.407511    -1.185857
 H     6.348216     0.073069    -1.275834
 H     4.243341     1.162325    -0.576502
 C     1.275731     2.779279    -0.187869
 C     1.723044     1.271751    -2.015902
 C     1.236028     3.596598    -2.460637
 C     1.550944     2.315701    -2.918942
 C     1.097685     3.825272    -1.093659
 H     1.163914     2.962701     0.882015
 H     0.849881     4.823756    -0.725227
 H     1.100017     4.415699    -3.171112
 H     1.661470     2.129414    -3.990232
 H     1.954335     0.268586    -2.382012
 C    -1.745926     1.049170    -2.602696
 H    -2.794297     0.725031    -2.728401
 H    -1.726736     2.083749    -2.223622
 H    -1.251081     1.030430    -3.583701
 C    -4.054348    -1.114457     0.454920
 C    -3.128700    -1.936992    -1.619041
 C    -5.279351    -2.731097    -0.857769
 C    -4.253683    -2.737345    -1.802305
 C    -5.175436    -1.921222     0.272796
 H    -3.980773    -0.480423     1.342556
 H    -5.974064    -1.916239     1.018641
 H    -6.159757    -3.362269    -1.000388
 H    -4.325909    -3.376168    -2.685813
 H    -2.314873    -1.955712    -2.348036
 C    -1.346027     1.921146     1.587196
 C    -3.235536     2.026981     0.089613
 C    -2.897295     3.764516     1.733224
 C    -3.638852     3.219672     0.683985
 C    -1.754730     3.110210     2.188444
 H    -0.448294     1.404997     1.938662
 H    -1.176516     3.525097     3.017655
 H    -3.218910     4.697667     2.202389
 H    -4.542557     3.723252     0.332351
 H    -3.840592     1.592464    -0.709188
