  88
scf done:    -3577.407040
 C    -1.249727     1.709912    -2.980507
 H    -1.364310     1.226059    -3.958355
 H    -2.090032     2.403331    -2.825009
 C     0.097372     2.312965    -2.742900
 H     0.838803     2.113392    -3.528402
 H     0.085382     3.390933    -2.516279
 H     0.592487     1.883568    -1.774863
Co    -0.591471     0.623324    -1.498528
 C    -2.064277     3.360850    -0.057927
 C    -3.836974     1.245639    -0.824931
 C    -2.371123     1.119378     1.666907
 C     0.821670    -1.859558     0.597366
 C     2.476888    -0.332514    -1.436762
 C     1.557273     0.832678     1.201873
 P     1.019106    -0.222814    -0.261939
 P    -2.098251     1.473943    -0.158281
 C    -0.791104    -0.762239    -2.475509
 O    -0.994402    -1.652031    -3.193517
 H    -2.126229     3.656016    -1.120554
 C    -3.200522     4.042758     0.694465
 H    -3.084135     5.137543     0.638991
 H    -4.193001     3.806978     0.285751
 H    -3.202221     3.775600     1.762936
 C    -0.714316     3.825769     0.475485
 H     0.115802     3.352275    -0.063718
 H    -0.609024     4.917834     0.376404
 H    -0.594395     3.589294     1.545938
 H    -3.762513     1.497354    -1.892527
 H    -4.497277     1.983243    -0.347830
 C    -4.410323    -0.123205    -0.640005
 C    -5.358550    -0.366747     0.362220
 H    -5.713595     0.464470     0.978335
 C    -3.986929    -1.199567    -1.431460
 H    -3.259281    -1.030560    -2.224650
 C    -5.851568    -1.650895     0.588737
 H    -6.586386    -1.818400     1.379799
 C    -4.474154    -2.484314    -1.203532
 H    -4.121204    -3.309042    -1.827460
 C    -5.402989    -2.717523    -0.188254
 H    -5.782957    -3.726255    -0.009786
 H    -3.451104     1.239583     1.853466
 H    -1.877214     1.942719     2.204563
 C    -1.909070    -0.177482     2.265380
 C    -1.005767    -0.161467     3.337240
 H    -0.613846     0.796711     3.690192
 C    -2.399204    -1.418793     1.837735
 H    -3.090789    -1.469066     0.998453
 C    -0.605685    -1.339768     3.965794
 H     0.101493    -1.297898     4.797869
 C    -2.011380    -2.596988     2.471615
 H    -2.412775    -3.549364     2.117516
 C    -1.112215    -2.565708     3.537038
 H    -0.805374    -3.491614     4.029103
 H     0.077376    -1.572921     1.355067
 C     0.172528    -2.917026    -0.283328
 H     0.026716    -3.838390     0.302801
 H    -0.810485    -2.591151    -0.646743
 H     0.792769    -3.173407    -1.155080
 C     2.043299    -2.400523     1.334744
 H     2.600599    -1.622633     1.876677
 H     1.706679    -3.140173     2.079173
 H     2.749792    -2.899040     0.659089
 H     2.841391     0.702155    -1.529249
 H     1.990872    -0.569865    -2.393332
 C     3.617434    -1.273746    -1.199941
 C     3.603064    -2.546530    -1.785884
 H     2.765434    -2.828738    -2.429727
 C     4.720375    -0.917446    -0.415483
 H     4.768906     0.080201     0.023186
 C     4.633585    -3.454691    -1.556097
 H     4.597828    -4.444086    -2.018704
 C     5.751905    -1.823964    -0.182614
 H     6.600316    -1.526490     0.438929
 C     5.708742    -3.100551    -0.741717
 H     6.517245    -3.811709    -0.556467
 H     1.581175     0.181077     2.085254
 H     0.706370     1.514060     1.342760
 C     2.825984     1.621807     1.118984
 C     3.011587     2.619163     0.150970
 H     2.211967     2.832743    -0.562718
 C     3.864310     1.388491     2.029334
 H     3.738559     0.617132     2.793919
 C     4.201481     3.339516     0.080320
 H     4.324585     4.106333    -0.688222
 C     5.053757     2.112148     1.967632
 H     5.849256     1.909157     2.688736
 C     5.230376     3.086740     0.987080
 H     6.163928     3.651218     0.932020
