  84
scf done:    -3497.937085
 C    -1.885548     0.125889    -2.844626
 H    -1.646326    -0.375747    -3.789400
 H    -2.946381     0.023394    -2.596645
 C    -1.300145     1.482640    -2.686262
 H    -0.724007     1.847398    -3.548375
 H    -2.013958     2.249806    -2.353949
 H    -0.504355     1.527495    -1.821540
Co    -0.622844    -0.154062    -1.375571
 O    -2.707369     1.185036     0.873067
 O    -3.600040    -0.653783    -0.464528
 O    -1.975074    -1.082943     1.457758
 O     1.999157    -1.423000     0.008897
 O     2.420445     0.853937    -0.822661
 O     1.096452     0.454695     1.305078
 P     1.156174    -0.039883    -0.247089
 P    -2.155486    -0.166287     0.105420
 C    -0.227847    -1.656459    -2.092530
 O    -0.078620    -2.719057    -2.524463
 C    -1.857827     1.994995     1.663872
 H    -2.497330     2.439622     2.444357
 H    -1.095688     1.377118     2.167124
 C    -1.196677     3.085596     0.843043
 H    -0.466572     2.613362     0.165649
 H    -1.963222     3.554586     0.202242
 C    -0.504179     4.142726     1.687907
 H     0.162440     3.649222     2.413852
 H    -1.257017     4.682047     2.289325
 C     0.297593     5.132261     0.858202
 H     1.089859     4.620135     0.287577
 H    -0.342812     5.655219     0.129769
 H     0.781103     5.896119     1.485787
 C    -4.786767    -0.700742     0.339692
 H    -4.489401    -0.664152     1.401207
 C    -5.475266    -2.018422     0.051994
 H    -4.820191    -2.863594     0.303454
 H    -5.731100    -2.089176    -1.016416
 H    -6.401920    -2.106902     0.638936
 C    -5.650048     0.501801     0.013061
 H    -5.097933     1.427277     0.221934
 H    -5.932541     0.489443    -1.051340
 H    -6.571208     0.493234     0.615747
 C    -1.183376    -2.272017     1.473689
 H    -0.212207    -2.054928     0.996937
 C    -1.861122    -3.392457     0.708414
 H    -2.037744    -3.111062    -0.339272
 H    -2.828169    -3.644607     1.170668
 H    -1.229305    -4.293245     0.714237
 C    -0.957752    -2.612587     2.930343
 H    -0.500176    -1.762230     3.452644
 H    -1.914827    -2.846398     3.421789
 H    -0.292489    -3.483491     3.026380
 C     2.780715    -2.022374    -1.018295
 H     2.502135    -3.087903    -1.047866
 H     2.520654    -1.592384    -1.999289
 C     4.259096    -1.848401    -0.741478
 H     4.818074    -2.293150    -1.584076
 H     4.484778    -0.768682    -0.748702
 C     4.717573    -2.470126     0.569889
 H     4.516519    -3.555945     0.546757
 H     4.098030    -2.068978     1.388484
 C     6.187367    -2.222857     0.866384
 H     6.833175    -2.636551     0.074910
 H     6.403053    -1.144046     0.933118
 H     6.493473    -2.682494     1.818412
 C     2.270051     1.946625    -1.726218
 H     1.291537     2.430017    -1.546545
 C     2.316968     1.432647    -3.151185
 H     1.522874     0.685766    -3.300380
 H     3.288263     0.953993    -3.350166
 H     2.175876     2.250991    -3.873123
 C     3.362371     2.945202    -1.406943
 H     3.285011     3.285144    -0.364099
 H     4.352881     2.485887    -1.546294
 H     3.289412     3.822985    -2.065894
 C     2.284171     0.505062     2.116237
 H     3.152983     0.306617     1.468446
 C     2.197679    -0.570639     3.177058
 H     2.071236    -1.555180     2.707099
 H     1.342233    -0.387173     3.844792
 H     3.114468    -0.585444     3.785828
 C     2.408164     1.900323     2.687850
 H     2.439445     2.646847     1.881659
 H     1.553249     2.129448     3.342010
 H     3.329815     1.991324     3.281913
