  68
scf done:    -3039.988945
 C    -3.406122     0.958447     0.244586
 H    -4.095906     0.768471     1.075609
 H    -3.365914     2.038787     0.048937
 C    -3.639628     0.117980    -0.968975
 H    -4.463227    -0.603744    -0.881078
 H    -3.755283     0.686878    -1.904089
 H    -2.716642    -0.557420    -1.225938
Co    -1.783256    -0.130700     0.190295
 O     0.979492     1.174083    -0.782431
 C    -1.172360     2.646630    -1.698727
 C    -0.230860     2.730937     1.061153
 O     1.034064    -1.883777     0.310720
 C    -1.137633    -3.393773    -0.247710
 C     0.136106    -1.627280    -2.151026
 P    -0.446216    -1.692951    -0.415496
 P    -0.579888     1.554178    -0.318493
 C    -2.007253    -0.665737     1.801831
 O    -2.111696    -0.918000     2.929728
 C     1.978408     2.058908    -1.239024
 H     1.863929     2.204253    -2.330798
 H     1.884067     3.051331    -0.765287
 C     3.343803     1.477417    -0.928013
 H     4.106370     2.141810    -1.372266
 H     3.502494     1.510727     0.163050
 C     3.530477     0.049120    -1.419262
 H     3.360627     0.012545    -2.510945
 H     2.750426    -0.579779    -0.962888
 C     4.901653    -0.517454    -1.090839
 H     5.711139     0.074707    -1.548310
 H     5.075718    -0.524591    -0.002277
 H     5.004931    -1.553964    -1.446560
 H    -2.272271     2.603282    -1.643044
 C    -0.725476     4.098399    -1.792632
 H     0.361927     4.199883    -1.914533
 H    -1.014058     4.671079    -0.898577
 H    -0.905998     2.087481    -2.612562
 H    -1.196345     4.591324    -2.657937
 H     0.400906     3.556654     0.694445
 C    -1.460084     3.267385     1.775646
 H    -2.070140     2.442723     2.170180
 H    -2.100993     3.865830     1.109238
 H     0.384146     2.144486     1.761125
 H    -1.166718     3.913058     2.617482
 C     1.126501    -2.237825     1.679657
 H     0.193318    -1.985342     2.212736
 H     1.267601    -3.330933     1.755456
 C     2.287631    -1.508230     2.317925
 H     2.452478    -1.932879     3.323837
 H     3.200369    -1.722505     1.734070
 C     2.063755    -0.006930     2.405904
 H     1.168991     0.182678     3.025084
 H     1.817426     0.360811     1.397834
 C     3.252688     0.752925     2.968033
 H     3.495206     0.428425     3.992984
 H     4.154786     0.595149     2.354241
 H     3.061169     1.836833     3.000993
 H    -1.272131    -3.555289     0.834402
 C    -2.465620    -3.572596    -0.965138
 H    -2.368439    -3.430621    -2.053362
 H    -3.201943    -2.843812    -0.594732
 H    -0.382413    -4.119308    -0.591474
 H    -2.874139    -4.580865    -0.799865
 H     0.629521    -0.646025    -2.221519
 C     1.054438    -2.745877    -2.612002
 H     0.539301    -3.718129    -2.644805
 H     1.916586    -2.843213    -1.936601
 H    -0.776020    -1.559650    -2.768553
 H     1.437207    -2.543769    -3.624290
