 102
scf done:    -3884.945346
 C    -0.732868    -1.114195     3.266622
 H    -0.735399    -0.696590     4.280579
 H    -1.701176    -1.592215     3.073138
 C     0.453240    -1.969792     2.943458
 H     1.165576    -2.098197     3.770907
 H     0.208162    -2.957311     2.523402
 H     1.120868    -1.506830     2.106481
Co     0.139612    -0.068709     1.874943
 O    -1.160075     0.212858    -1.008443
 C    -2.241362    -2.032131     0.322796
 C    -2.995194     0.699641     1.066592
 O     1.311746     2.280781     0.210015
 C     3.296513     0.765496     1.428997
 C     1.971355     0.057935    -1.143516
 P     1.635843     0.700490     0.556661
 P    -1.501334    -0.300074     0.532361
 C     0.197097     1.321056     2.885934
 O     0.093889     2.274292     3.534031
 C    -1.886071     0.026299    -2.225480
 H    -2.929388    -0.231410    -1.987837
 C    -1.239488    -1.092537    -3.025598
 H    -1.184342    -2.032597    -2.459447
 H    -0.209806    -0.821199    -3.304536
 H    -1.804492    -1.280835    -3.951309
 C    -1.874331     1.333506    -2.989392
 H    -2.350476     2.131221    -2.407131
 H    -0.839714     1.633954    -3.215519
 H    -2.417441     1.224335    -3.939905
 H    -1.613146    -2.502929    -0.448038
 H    -1.978029    -2.525789     1.270615
 C    -3.696701    -2.229192     0.015381
 C    -4.125017    -2.344904    -1.314577
 H    -3.378720    -2.355909    -2.110033
 C    -4.667098    -2.310829     1.041468
 C    -4.289081    -2.347531     2.494840
 H    -3.770029    -1.435548     2.827534
 H    -3.612512    -3.190196     2.710521
 H    -5.180232    -2.467785     3.125305
 C    -5.470549    -2.454915    -1.649325
 H    -5.766021    -2.535727    -2.697972
 C    -6.018588    -2.409126     0.687841
 H    -6.765394    -2.456687     1.485090
 C    -6.430047    -2.463978    -0.640446
 H    -7.492553    -2.538023    -0.882991
 H    -3.779220    -0.015463     1.344839
 H    -2.657909     1.197778     1.985485
 C    -3.572125     1.687400     0.099411
 C    -4.691864     1.333059    -0.662748
 H    -5.114374     0.330420    -0.548438
 C    -3.024899     2.980750    -0.032990
 C    -1.813558     3.388753     0.747132
 H    -0.944277     2.757794     0.506936
 H    -1.971403     3.299810     1.833621
 H    -1.541100     4.432508     0.535560
 C    -5.271141     2.229187    -1.557258
 H    -6.142077     1.927645    -2.143990
 C    -3.632139     3.874821    -0.922560
 H    -3.215870     4.881401    -1.020680
 C    -4.740054     3.510576    -1.684921
 H    -5.188221     4.229055    -2.375570
 C     2.118522     3.162227    -0.565813
 H     3.063792     2.658341    -0.835118
 C     2.432635     4.374147     0.289868
 H     2.977844     4.082976     1.199622
 H     1.498262     4.863858     0.602909
 H     3.043250     5.101860    -0.265513
 C     1.373149     3.516833    -1.838072
 H     1.188393     2.620861    -2.446439
 H     0.398741     3.965080    -1.592723
 H     1.949213     4.234003    -2.441943
 H     3.322311     1.790529     1.831183
 H     3.151982     0.113479     2.301129
 C     4.577900     0.436086     0.725236
 C     5.323801     1.444727     0.101304
 H     4.958966     2.474635     0.139807
 C     5.080705    -0.883396     0.724560
 C     4.359225    -1.993418     1.429107
 H     3.326636    -2.104607     1.067205
 H     4.308677    -1.811563     2.515685
 H     4.866958    -2.954164     1.272098
 C     6.532682     1.173739    -0.534757
 H     7.094412     1.982012    -1.008644
 C     6.295324    -1.139947     0.079209
 H     6.680494    -2.163144     0.076364
 C     7.019839    -0.130701    -0.549789
 H     7.965907    -0.362837    -1.044352
 H     1.024246     0.302773    -1.649924
 H     2.769283     0.667124    -1.586676
 C     2.270537    -1.406601    -1.283572
 C     1.431990    -2.349032    -0.675631
 H     0.593655    -1.981579    -0.081025
 C     3.364734    -1.858164    -2.050575
 C     4.254569    -0.902762    -2.790209
 H     4.719260    -0.167689    -2.116652
 H     3.690600    -0.340961    -3.552855
 H     5.064877    -1.439110    -3.301993
 C     1.674364    -3.715938    -0.776368
 H     1.006922    -4.426583    -0.282543
 C     3.599189    -3.235393    -2.135343
 H     4.453074    -3.585788    -2.721806
 C     2.773751    -4.162978    -1.503834
 H     2.985646    -5.231416    -1.589918
