 114
scf done:    -3967.857578
 C    -1.005263     2.150148    -2.626188
 H    -0.669536     2.269968    -3.663229
 H    -2.103529     2.119887    -2.595353
 C    -0.370963     3.080962    -1.654048
 H     0.448145     3.692908    -2.052021
 H    -1.070270     3.733492    -1.107700
 H     0.093217     2.512285    -0.740576
Co     0.018240     0.931568    -1.497036
 C    -2.944261     0.793644     0.556001
 C    -2.701358    -0.719845    -2.016062
 C    -1.468195    -1.691639     0.324592
 C     2.188258    -1.274634     0.133611
 C     3.301356     0.951684    -1.539500
 C     2.266961     1.407252     1.148652
 P     1.874850     0.471168    -0.420266
 P    -1.701738    -0.073607    -0.557505
 C     0.519089     0.122559    -2.900856
 O     0.784949    -0.464395    -3.868560
 H    -2.297767     1.269759     1.316362
 C    -3.942310    -0.092699     1.304776
 H    -3.403900    -0.834081     1.914236
 H    -4.555767    -0.657830     0.585945
 C    -4.856858     0.730509     2.207393
 H    -5.587864     0.069287     2.700641
 H    -4.255921     1.186669     3.015860
 C    -5.567243     1.833717     1.433677
 H    -6.215339     2.422390     2.103250
 H    -6.231177     1.376518     0.676995
 C    -4.558480     2.737775     0.737070
 H    -3.952305     3.255186     1.502285
 H    -5.071443     3.526143     0.161999
 C    -3.633711     1.945009    -0.181192
 H    -4.223829     1.548919    -1.022246
 H    -2.875065     2.610094    -0.618507
 H    -2.871087     0.161787    -2.648918
 H    -1.960822    -1.330794    -2.556586
 C    -3.972659    -1.483504    -1.810194
 C    -3.962308    -2.853493    -1.509079
 H    -3.012728    -3.392983    -1.480606
 C    -5.215286    -0.848621    -1.917426
 H    -5.246373     0.207387    -2.200562
 C    -5.151171    -3.534860    -1.265452
 H    -5.126527    -4.601923    -1.030442
 C    -6.420938    -1.512846    -1.670904
 C    -7.724141    -0.771476    -1.751488
 H    -7.841171    -0.086838    -0.894740
 H    -7.781666    -0.158650    -2.663918
 H    -8.582116    -1.458243    -1.746702
 C    -6.373273    -2.868197    -1.329845
 H    -7.302562    -3.409479    -1.132980
 H    -2.440528    -2.207438     0.365440
 H    -0.838485    -2.289480    -0.357687
 C    -0.857996    -1.710895     1.699410
 C    -0.456578    -0.556709     2.373775
 H    -0.571259     0.409151     1.882100
 C    -0.658031    -2.946444     2.330056
 H    -0.971277    -3.858789     1.812454
 C     0.132136    -0.638257     3.635067
 H     0.441100     0.275603     4.149902
 C    -0.059544    -3.052727     3.587392
 C     0.195341    -4.395542     4.207955
 H    -0.490996    -5.159458     3.815881
 H     1.222897    -4.735184     3.993618
 H     0.085627    -4.362839     5.301785
 C     0.333271    -1.875097     4.237970
 H     0.799567    -1.932824     5.225193
 H     1.286113    -1.456218     0.740430
 C     3.387335    -1.541111     1.048342
 H     3.370348    -0.864045     1.915091
 H     4.330046    -1.348255     0.514450
 C     3.371311    -2.986410     1.540004
 H     4.250137    -3.172563     2.178861
 H     2.480049    -3.139076     2.174967
 C     3.337504    -3.972660     0.378879
 H     3.308772    -5.009579     0.752215
 H     4.271784    -3.876903    -0.204826
 C     2.147953    -3.702657    -0.534587
 H     1.214450    -3.894429     0.025654
 H     2.148147    -4.397505    -1.390209
 C     2.138098    -2.261407    -1.034297
 H     3.004472    -2.101835    -1.697072
 H     1.243846    -2.074089    -1.647303
 H     3.040242     0.515045    -2.513792
 H     3.178981     2.040372    -1.659204
 C     4.701958     0.579156    -1.162805
 C     5.444119     1.296983    -0.214858
 H     5.033114     2.205233     0.230254
 C     5.300696    -0.540724    -1.751954
 H     4.749256    -1.086104    -2.523588
 C     6.712691     0.866273     0.163617
 H     7.278055     1.434406     0.906462
 C     6.569588    -0.994602    -1.380415
 C     7.142653    -2.235912    -2.000455
 H     6.663786    -3.138210    -1.584323
 H     6.976808    -2.255306    -3.088036
 H     8.222955    -2.319619    -1.816507
 C     7.268167    -0.279434    -0.401981
 H     8.262592    -0.613715    -0.094289
 H     1.790549     0.832969     1.955192
 H     3.352390     1.356974     1.316436
 C     1.772826     2.820285     1.154177
 C     2.484616     3.851762     0.532081
 H     3.451285     3.646525     0.067270
 C     0.542891     3.133709     1.747945
 H    -0.018949     2.343074     2.251663
 C     1.968589     5.146058     0.497373
 H     2.536341     5.941746     0.008834
 C     0.005383     4.422136     1.717824
 C    -1.334281     4.713494     2.328563
 H    -1.692927     3.871073     2.936735
 H    -1.300710     5.608287     2.968601
 H    -2.088947     4.902888     1.547540
 C     0.737155     5.430835     1.079060
 H     0.338432     6.448364     1.042273
