  90
scf done:    -6013.916497
 C     2.298752     1.880373    -2.415331
 H     2.644234     1.660378    -3.432397
 H     1.810935     2.865020    -2.393356
 C     3.304815     1.654202    -1.334966
 H     4.284162     1.299028    -1.683357
 H     3.428143     2.506975    -0.651812
 H     2.991916     0.802415    -0.594827
Co     1.505326     0.387990    -1.428555
 C     0.449411     3.226205     0.023843
 O    -1.082912     2.346033    -1.893436
 O    -1.071808     0.967065     0.283594
 C    -0.315552    -2.190114    -0.164877
 O     2.290018    -2.346512     0.071366
 O     1.170295    -0.574823     1.544598
 P     1.137951    -1.133921    -0.034039
 P    -0.006298     1.677341    -0.797638
 C     1.566661    -0.651398    -2.813749
 O     1.549818    -1.299545    -3.767403
 C     0.227078     4.503143    -0.510704
 H    -0.310087     4.602954    -1.456105
 C     1.137335     3.105022     1.234842
 H     1.328195     2.109157     1.648285
 C     0.668914     5.630683     0.163743
 H     0.505921     6.633592    -0.235212
 C     1.574427     4.232326     1.925567
 H     2.095506     4.108689     2.874977
 C     1.341742     5.506424     1.389186
 O     1.726624     6.654181     1.972091
 C     2.400563     6.602028     3.199879
 H     3.355042     6.052901     3.120219
 H     2.611333     7.639900     3.486133
 H     1.783696     6.132788     3.986076
 C    -1.743201     1.498956    -2.748375
 C    -3.076823     1.180198    -2.492990
 H    -3.584442     1.639155    -1.643896
 C    -1.080479     0.940240    -3.840882
 H    -0.046098     1.220276    -4.036017
 C    -3.738021     0.264903    -3.305927
 H    -4.777503    -0.002283    -3.109567
 C    -1.733444     0.012882    -4.647593
 H    -1.213358    -0.456602    -5.483499
 C    -3.054631    -0.331303    -4.365130
Cl    -3.857116    -1.528471    -5.328810
 C    -2.300820     1.363747     0.713106
 C    -3.210988     0.341311     1.001987
 H    -2.906078    -0.693709     0.837297
 C    -2.673700     2.698362     0.885917
 H    -1.969882     3.499182     0.664459
 C    -4.486618     0.646966     1.461051
 H    -5.201807    -0.146910     1.682280
 C    -3.954782     3.004107     1.339913
 H    -4.255835     4.044228     1.474658
 C    -4.856792     1.981759     1.626772
Cl    -6.449041     2.369732     2.191645
 C    -1.273136    -1.861857    -1.138128
 H    -1.117900    -0.986521    -1.771178
 C    -0.514881    -3.334217     0.616174
 H     0.229525    -3.634099     1.354744
 C    -2.407151    -2.636949    -1.309194
 H    -3.146058    -2.393730    -2.074307
 C    -1.657695    -4.112908     0.462102
 H    -1.787078    -4.993364     1.091355
 C    -2.615763    -3.764679    -0.501385
 O    -3.746613    -4.452743    -0.722745
 C    -4.009714    -5.598761     0.040742
 H    -4.086016    -5.365002     1.116999
 H    -4.973017    -5.992006    -0.306926
 H    -3.235391    -6.372262    -0.102369
 C     3.601298    -2.028127    -0.151186
 C     4.232858    -2.547571    -1.280835
 H     3.659520    -3.179363    -1.961236
 C     4.301659    -1.194632     0.723776
 H     3.792702    -0.777432     1.594264
 C     5.565412    -2.241737    -1.536011
 H     6.068079    -2.638312    -2.419443
 C     5.634953    -0.883594     0.469764
 H     6.192030    -0.231151     1.143910
 C     6.260700    -1.407883    -0.659759
Cl     7.917219    -1.014493    -0.982246
 C     0.726621    -1.270851     2.635201
 C     1.535433    -2.229557     3.247532
 H     2.522687    -2.446541     2.837313
 C    -0.540290    -0.988470     3.144438
 H    -1.150523    -0.232684     2.650030
 C     1.066311    -2.921091     4.361346
 H     1.684875    -3.677172     4.847479
 C    -1.011130    -1.676197     4.257698
 H    -2.003210    -1.466654     4.660735
 C    -0.207160    -2.644874     4.858114
Cl    -0.794544    -3.512033     6.238934
