  86
scf done:    -3723.929789
 C     1.642433     0.085448     2.944558
 H     1.363989    -0.042562     3.997602
 H     2.484600    -0.574401     2.693902
 C     1.808343     1.500308     2.503190
 H     1.633515     2.253565     3.283804
 H     2.759048     1.700157     1.987502
 H     1.035602     1.800042     1.673635
Co     0.165764     0.281954     1.678658
 C     2.869018    -0.570376    -0.127438
 O     1.536720    -2.540050     0.928253
 O     0.444189    -1.356546    -1.070172
 C    -2.706275     0.308049    -0.176772
 O    -1.941298     2.590276     0.758149
 O    -0.448373     1.631683    -1.073003
 P    -1.195471     1.178087     0.327292
 P     1.180265    -1.024517     0.375145
 C    -1.011450    -0.286562     2.802989
 O    -1.755823    -0.809766     3.516425
 C     4.000271    -1.376944     0.049204
 H     3.883508    -2.358561     0.512354
 C     3.022651     0.691639    -0.709795
 H     2.139363     1.324419    -0.848860
 C     5.249855    -0.937031    -0.363194
 H     6.142982    -1.551387    -0.233002
 C     4.270685     1.141104    -1.135014
 H     4.357332     2.125933    -1.594755
 C     5.395571     0.322701    -0.961663
 O     6.645062     0.664236    -1.331605
 C     6.855800     1.908997    -1.935745
 H     6.574870     2.743150    -1.268642
 H     7.929378     1.975916    -2.153030
 H     6.294025     2.007687    -2.881536
 C     0.555851    -3.287796     1.654082
 H    -0.407080    -2.747330     1.608842
 C     0.980075    -3.395145     3.103720
 H     1.042870    -2.399245     3.559392
 H     1.966005    -3.880357     3.176809
 H     0.252462    -3.990835     3.674856
 C     0.407403    -4.640180     0.986312
 H     0.084274    -4.532892    -0.058480
 H     1.368322    -5.177791     0.994995
 H    -0.336875    -5.253029     1.516424
 C     0.934655    -2.304140    -2.021626
 H     1.587000    -3.023193    -1.495141
 C     1.730273    -1.608066    -3.110738
 H     2.616643    -1.106020    -2.702381
 H     1.106047    -0.854987    -3.614676
 H     2.064144    -2.339572    -3.862331
 C    -0.272043    -3.036158    -2.576732
 H    -0.830645    -3.541038    -1.775307
 H    -0.954809    -2.325201    -3.066766
 H     0.035293    -3.792421    -3.314480
 C    -2.638986    -1.075021    -0.405524
 H    -1.685275    -1.588132    -0.278248
 C    -3.931722     0.956071    -0.347300
 H    -4.002687     2.024773    -0.138600
 C    -3.754830    -1.779551    -0.823421
 H    -3.712035    -2.854079    -1.011332
 C    -5.063757     0.256178    -0.761846
 H    -6.006237     0.791008    -0.881503
 C    -4.979133    -1.119642    -1.007779
 O    -6.010697    -1.882897    -1.412673
 C    -7.262883    -1.285566    -1.601981
 H    -7.231513    -0.503876    -2.381462
 H    -7.945377    -2.081546    -1.925601
 H    -7.650801    -0.840678    -0.668806
 C    -1.192230     3.652285     1.345912
 H    -0.133096     3.554505     1.038812
 C    -1.286308     3.563587     2.856019
 H    -0.904884     2.589805     3.194790
 H    -2.335782     3.653328     3.175249
 H    -0.701876     4.363893     3.334828
 C    -1.737555     4.950672     0.787781
 H    -1.650087     4.973297    -0.308114
 H    -2.801250     5.058510     1.050250
 H    -1.190495     5.811687     1.199990
 C    -1.136548     2.218195    -2.178617
 H    -2.091898     2.641654    -1.819830
 C    -1.415223     1.157141    -3.225117
 H    -2.044912     0.357113    -2.812669
 H    -0.470266     0.709444    -3.566257
 H    -1.931422     1.595161    -4.092853
 C    -0.265503     3.344203    -2.698538
 H    -0.075728     4.085478    -1.908616
 H     0.704431     2.947301    -3.036629
 H    -0.747076     3.853093    -3.547010
