  90
scf done:    -3652.133282
 C     0.735778     1.714026     2.228011
 H     0.662984     1.535609     3.307117
 H     1.767778     1.977906     1.961176
 C    -0.302300     2.623164     1.657611
 H    -1.003778     3.041353     2.393134
 H     0.102901     3.424127     1.022391
 H    -1.031065     2.071356     0.924867
Co    -0.268306     0.500984     1.071399
 C     2.248618     1.820551    -0.750417
 O     2.746326    -0.445726     0.434576
 O     1.134561    -0.479931    -1.593640
 C    -1.585740    -1.847806    -1.018517
 O    -3.277433     0.038413    -0.061996
 O    -1.624100     0.775731    -1.745892
 P    -1.664010    -0.138158    -0.379535
 P     1.410149     0.307548    -0.175420
 C    -0.583795    -0.575569     2.371152
 O    -0.653961    -1.342116     3.240086
 C     1.525301     2.633980    -1.633546
 C     3.494750     2.245188    -0.281924
 C     3.290685     4.279201    -1.573808
 C     4.011832     3.473860    -0.693773
 C     2.047278     3.855764    -2.047685
 H     0.550289     2.291910    -1.993452
 H     1.480608     4.483363    -2.740175
 H     3.698485     5.241543    -1.892878
 H     4.986254     3.803892    -0.325072
 H     4.055625     1.599978     0.397162
 C     2.607435    -1.644849     1.181259
 H     1.571978    -1.732750     1.550938
 H     2.796605    -2.500056     0.509421
 C     3.582051    -1.652715     2.337123
 H     3.543532    -2.653499     2.802673
 H     4.606465    -1.535511     1.940821
 C     3.300915    -0.584040     3.383117
 H     2.273118    -0.717038     3.761718
 H     3.311570     0.402922     2.893873
 C     4.288976    -0.601289     4.537093
 H     4.273220    -1.568230     5.065981
 H     5.320487    -0.438146     4.184286
 H     4.062779     0.183240     5.275089
 C     2.099433    -0.674602    -2.614504
 H     1.534156    -0.666834    -3.561344
 H     2.804073     0.174416    -2.640575
 C     2.845010    -1.985648    -2.457001
 H     3.539574    -2.087267    -3.309976
 H     3.474562    -1.926785    -1.553742
 C     1.922464    -3.192416    -2.379143
 H     1.339994    -3.264906    -3.314230
 H     1.177559    -3.016175    -1.587097
 C     2.650098    -4.500198    -2.121754
 H     3.380408    -4.724427    -2.916357
 H     3.204746    -4.467683    -1.169358
 H     1.947391    -5.345756    -2.065567
 C    -1.302618    -2.893635    -0.133063
 C    -1.797257    -2.130893    -2.371339
 C    -1.492218    -4.488086    -1.937191
 C    -1.752631    -3.446091    -2.827392
 C    -1.264290    -4.209925    -0.590379
 H    -1.104564    -2.680356     0.919922
 H    -1.045686    -5.020611     0.108600
 H    -1.454710    -5.519021    -2.297312
 H    -1.913204    -3.659772    -3.886981
 H    -1.975020    -1.312309    -3.071275
 C    -4.148789    -0.919342     0.509406
 H    -5.161341    -0.542143     0.291942
 H    -4.037910    -1.888492    -0.008698
 C    -3.967305    -1.089240     2.005468
 H    -4.788408    -1.734283     2.365816
 H    -3.037922    -1.644634     2.211116
 C    -3.948957     0.224087     2.773800
 H    -4.865167     0.796971     2.543080
 H    -3.105482     0.826290     2.397769
 C    -3.812496     0.031965     4.274972
 H    -4.651162    -0.553789     4.685677
 H    -2.881429    -0.503342     4.517224
 H    -3.790915     0.996867     4.804217
 C    -2.751933     1.299093    -2.432481
 H    -2.412854     1.451965    -3.470752
 H    -3.574720     0.567195    -2.444649
 C    -3.225262     2.608012    -1.828857
 H    -4.072402     2.976092    -2.434854
 H    -3.626752     2.398005    -0.823717
 C    -2.141416     3.672123    -1.740252
 H    -1.756059     3.890871    -2.752729
 H    -1.289906     3.258148    -1.178527
 C    -2.611351     4.954784    -1.075360
 H    -3.449139     5.414076    -1.624704
 H    -2.959517     4.761552    -0.047746
 H    -1.802615     5.699044    -1.016535
