 114
scf done:    -3967.849133
 C     0.416795    -0.387602    -3.607024
 H     0.437452     0.278814    -4.478289
 H     1.314895    -1.019165    -3.612501
 C    -0.867771    -1.132959    -3.430387
 H    -1.668409    -0.831880    -4.119902
 H    -0.774346    -2.229934    -3.444494
 H    -1.320190    -0.957431    -2.374456
Co    -0.209196     0.326487    -1.901957
 C     2.151545    -2.052610    -0.575907
 C     3.043070     0.479423    -1.780547
 C     1.718733     0.403029     0.948855
 C    -1.301477     2.447614     0.521081
 C    -3.328208     0.982454    -1.168416
 C    -2.045654    -0.280398     1.124961
 P    -1.663630     0.809981    -0.331659
 P     1.602816    -0.273807    -0.814515
 C    -0.212387     1.875477    -2.620063
 O    -0.080248     2.892600    -3.167255
 H     1.604101    -2.344511     0.336306
 C     3.636359    -2.309894    -0.315465
 H     4.029968    -1.642460     0.461583
 H     4.202927    -2.097151    -1.239136
 C     3.871479    -3.766820     0.074221
 H     4.945409    -3.939289     0.252675
 H     3.364257    -3.962078     1.036023
 C     3.346818    -4.723333    -0.990111
 H     3.473787    -5.769910    -0.668366
 H     3.950783    -4.605932    -1.908389
 C     1.885155    -4.441189    -1.319587
 H     1.259239    -4.682967    -0.441294
 H     1.541115    -5.096121    -2.137254
 C     1.662656    -2.977811    -1.690170
 H     2.206299    -2.751671    -2.624946
 H     0.599981    -2.794791    -1.901426
 H     3.508191    -0.361885    -2.314473
 H     2.538660     1.087421    -2.542403
 C     4.091904     1.286096    -1.079883
 C     5.354656     0.741599    -0.819393
 H     5.562593    -0.283640    -1.131857
 C     3.833147     2.622215    -0.700650
 C     2.536201     3.290552    -1.051552
 H     1.663527     2.649496    -0.861148
 H     2.489915     3.530573    -2.126375
 H     2.407100     4.229676    -0.495351
 C     6.342721     1.470323    -0.163641
 H     7.317237     1.016449     0.030817
 C     4.830379     3.336715    -0.027265
 H     4.624763     4.366695     0.277417
 C     6.074548     2.772934     0.249089
 H     6.833915     3.355430     0.776056
 H     1.966436     1.466938     0.830943
 H     0.679878     0.370648     1.300900
 C     2.633000    -0.214565     1.967595
 C     3.917873     0.314861     2.144198
 H     4.208127     1.195499     1.570952
 C     2.235000    -1.309864     2.766240
 C     0.824854    -1.830018     2.782714
 H     0.381056    -1.952941     1.785978
 H     0.166054    -1.144102     3.342919
 H     0.771276    -2.806095     3.284226
 C     4.832561    -0.261464     3.018921
 H     5.830890     0.170780     3.118922
 C     3.172758    -1.886163     3.631828
 H     2.868788    -2.745660     4.236029
 C     4.466525    -1.386824     3.752414
 H     5.176041    -1.863240     4.433142
 H    -0.201121     2.480237     0.440054
 C    -1.644548     2.580446     2.006486
 H    -1.228782     1.741406     2.583185
 H    -2.738887     2.542550     2.146867
 C    -1.100017     3.889670     2.573879
 H    -1.377138     3.979940     3.636732
 H     0.004209     3.855811     2.543584
 C    -1.585446     5.101242     1.788374
 H    -1.140406     6.024597     2.193053
 H    -2.678843     5.202457     1.915951
 C    -1.268201     4.957303     0.305532
 H    -0.173598     4.970063     0.157138
 H    -1.667758     5.812636    -0.262424
 C    -1.827851     3.655421    -0.258464
 H    -2.929493     3.686156    -0.191381
 H    -1.577542     3.574252    -1.325196
 H    -3.328270     2.003598    -1.578634
 H    -3.248623     0.325362    -2.041926
 C    -4.593643     0.710240    -0.411832
 C    -5.068979     1.635677     0.525976
 H    -4.495780     2.548571     0.704829
 C    -5.343838    -0.461245    -0.655424
 C    -4.901569    -1.488190    -1.657534
 H    -3.897132    -1.875681    -1.428694
 H    -4.870297    -1.071216    -2.677535
 H    -5.590547    -2.343201    -1.668414
 C    -6.258835     1.431043     1.219408
 H    -6.605664     2.173626     1.941723
 C    -6.540044    -0.650064     0.046934
 H    -7.121527    -1.556015    -0.144194
 C    -7.002015     0.278655     0.975698
 H    -7.939510     0.101021     1.507748
 H    -1.154217    -0.243680     1.770133
 H    -2.850900     0.206650     1.687930
 C    -2.395912    -1.713743     0.840829
 C    -1.625701    -2.461325    -0.056084
 H    -0.789151    -1.962617    -0.550725
 C    -3.468192    -2.339153     1.511944
 C    -4.269044    -1.620437     2.557904
 H    -4.727122    -0.699451     2.168674
 H    -3.638085    -1.336167     3.416043
 H    -5.079600    -2.257790     2.936319
 C    -1.921356    -3.791722    -0.341816
 H    -1.304850    -4.347707    -1.052328
 C    -3.759389    -3.673243     1.205582
 H    -4.597940    -4.156400     1.714676
 C    -3.006733    -4.398186     0.283936
 H    -3.262237    -5.438149     0.067157
