  86
scf done:    -3875.232948
 C     1.104573    -0.334622     3.555024
 H     0.642941    -0.793145     4.438233
 H     2.137342    -0.684374     3.440970
 C     0.926379     1.141099     3.453976
 H     0.344932     1.599850     4.266709
 H     1.855899     1.710638     3.305290
 H     0.302195     1.441541     2.510613
Co     0.013803    -0.188833     1.946610
 C     2.306352     0.657021    -0.444948
 C     3.067316    -1.626934     1.121957
 C     1.099540    -1.970516    -0.765487
 C    -2.129365    -0.378896    -0.716113
 C    -2.986888     1.245121     1.471551
 C    -1.033893     2.258807    -0.302210
 P    -1.456170     0.701207     0.594106
 P     1.574369    -0.725224     0.511345
 C    -1.047772    -1.400587     2.514163
 O    -1.705880    -2.292661     2.856656
 C     3.138510     1.562972     0.238928
 H     3.455887     1.340308     1.261951
 C     1.916224     0.993518    -1.742187
 H     1.266956     0.320224    -2.303827
 C     3.561748     2.741573    -0.352224
 H     4.206520     3.444600     0.178900
 C     2.324506     2.181755    -2.348512
 H     1.975501     2.409467    -3.355563
 C     3.142891     3.071439    -1.649930
 O     3.556596     4.263249    -2.125477
 C     3.128112     4.660698    -3.397974
 H     2.027144     4.722269    -3.456266
 H     3.552611     5.656790    -3.576793
 H     3.487160     3.974516    -4.185436
 C     2.844970    -2.664205     2.037634
 C     4.367064    -1.400578     0.658543
 C     5.195850    -3.216702     2.022834
 C     5.425507    -2.188445     1.111390
 C     3.899998    -3.456237     2.480918
 H     1.829485    -2.844606     2.401144
 H     3.709763    -4.262817     3.193202
 H     6.025992    -3.833506     2.375696
 H     6.436660    -1.998244     0.742646
 H     4.558416    -0.607371    -0.067505
 C     0.014635    -2.810566    -0.500314
 C     1.856829    -2.185367    -1.924471
 C     0.410148    -4.014451    -2.556695
 C     1.504017    -3.189883    -2.822045
 C    -0.322104    -3.831510    -1.386642
 H    -0.569772    -2.660950     0.407824
 H    -1.173262    -4.478399    -1.162518
 H     0.133708    -4.802936    -3.260806
 H     2.096425    -3.339481    -3.728230
 H     2.737033    -1.569410    -2.123597
 C    -1.608271    -0.384592    -2.018783
 H    -0.855590     0.351634    -2.304560
 C    -3.084451    -1.343196    -0.384020
 H    -3.497452    -1.375083     0.627345
 C    -2.029459    -1.313782    -2.954977
 H    -1.615484    -1.330642    -3.964366
 C    -3.515910    -2.286068    -1.315334
 H    -4.258676    -3.025327    -1.015063
 C    -2.981107    -2.281482    -2.608473
 O    -3.308324    -3.166273    -3.569982
 C    -4.224224    -4.181025    -3.268973
 H    -5.213529    -3.775236    -2.992882
 H    -4.331598    -4.788383    -4.176601
 H    -3.865998    -4.826931    -2.447696
 C    -2.945827     1.375192     2.861810
 C    -4.168455     1.565741     0.791449
 C    -5.230390     2.154186     2.880309
 C    -5.283820     2.014975     1.492370
 C    -4.060056     1.833445     3.563769
 H    -2.030084     1.089519     3.385385
 H    -4.014573     1.929745     4.651221
 H    -6.107355     2.506703     3.428822
 H    -6.203006     2.255962     0.952726
 H    -4.224232     1.448309    -0.293038
 C     0.028154     3.034560     0.170014
 C    -1.779252     2.731463    -1.391491
 C    -0.412763     4.721767    -1.497234
 C    -1.467371     3.950655    -1.987228
 C     0.334661     4.260603    -0.416564
 H     0.638449     2.663658     0.994156
 H     1.175309     4.846221    -0.038520
 H    -0.174122     5.682827    -1.959974
 H    -2.057745     4.304080    -2.836259
 H    -2.608292     2.140558    -1.786019
