  90
scf done:    -4050.355229
 C    -0.804864     0.472792    -3.325852
 H    -0.795134    -0.186971    -4.203179
 H    -1.769342     0.993079    -3.256169
 C     0.377188     1.375053    -3.220612
 H     1.184841     1.175948    -3.937211
 H     0.132199     2.448905    -3.228708
 H     0.890133     1.276979    -2.181546
Co     0.025622    -0.165603    -1.677290
 C    -2.109087     1.795956     0.300762
 C    -3.272147    -0.628159    -0.931765
 C    -1.492690    -0.912485     1.174705
 C     2.017227    -1.429523     1.028696
 C     3.260227     0.187816    -1.026392
 C     1.518220     1.437469     0.851535
 P     1.642519    -0.074539    -0.189656
 P    -1.673357     0.099664    -0.351790
 C     0.164890    -1.767466    -2.278222
 O     0.083598    -2.860674    -2.657756
 H    -1.242418     2.017989     0.952948
 C    -3.389805     1.980879     1.111213
 H    -3.436932     1.271924     1.952269
 H    -4.257151     1.758816     0.466736
 C    -3.509331     3.412702     1.628484
 H    -4.439537     3.526257     2.208701
 H    -2.677631     3.618766     2.327267
 C    -3.466938     4.418606     0.484922
 H    -3.524518     5.448339     0.873180
 H    -4.357239     4.275505    -0.153885
 C    -2.209040     4.236115    -0.355176
 H    -1.327293     4.491774     0.258537
 H    -2.208797     4.932471    -1.209647
 C    -2.059508     2.801965    -0.851069
 H    -2.867336     2.570622    -1.569444
 H    -1.111048     2.680476    -1.394428
 C    -3.414878    -1.063224    -2.253179
 H    -2.574121    -0.956697    -2.937181
 C    -4.336371    -0.852295    -0.042853
 H    -4.231885    -0.591066     1.010985
 C    -4.594725    -1.657821    -2.696619
 H    -4.708275    -2.001890    -3.726175
 C    -5.521238    -1.441953    -0.468172
 H    -6.351191    -1.620508     0.217915
 C    -5.638466    -1.829398    -1.799002
 F    -6.769916    -2.396382    -2.211256
 C    -1.429090    -2.305352     0.996913
 H    -1.551866    -2.724892    -0.005156
 C    -1.344074    -0.402598     2.467662
 H    -1.400691     0.671216     2.646528
 C    -1.206853    -3.159978     2.068166
 H    -1.159550    -4.242219     1.935532
 C    -1.101630    -1.247677     3.553488
 H    -0.974527    -0.856997     4.564994
 C    -1.027261    -2.615578     3.336807
 F    -0.774257    -3.428745     4.361284
 H     1.146100    -1.425907     1.708340
 C     3.294951    -1.221379     1.843507
 H     3.294696    -0.243231     2.348309
 H     4.157489    -1.213458     1.155848
 C     3.484465    -2.342945     2.860635
 H     4.406735    -2.171082     3.438963
 H     2.651025    -2.324923     3.586675
 C     3.526897    -3.701661     2.173007
 H     3.634078    -4.508302     2.916014
 H     4.421914    -3.750521     1.526718
 C     2.279021    -3.920918     1.327799
 H     1.402806    -3.986302     1.995988
 H     2.335684    -4.881911     0.791797
 C     2.049492    -2.789922     0.329509
 H     2.857382    -2.790592    -0.424740
 H     1.113736    -2.958005    -0.219345
 C     4.297008     0.943904    -0.461780
 H     4.152427     1.432323     0.504269
 C     3.467901    -0.412790    -2.274611
 H     2.650473    -0.977556    -2.730089
 C     5.514044     1.091348    -1.119741
 H     6.328246     1.680750    -0.694176
 C     4.684527    -0.283456    -2.939295
 H     4.858886    -0.749511    -3.910747
 C     5.692640     0.469870    -2.351081
 F     6.854782     0.608410    -2.982920
 C     1.559063     2.686343     0.209777
 H     1.782940     2.740631    -0.858414
 C     1.245837     1.412021     2.223491
 H     1.216474     0.464600     2.760861
 C     1.316129     3.865839     0.901502
 H     1.347483     4.837250     0.405163
 C     0.983073     2.585943     2.930903
 H     0.757802     2.569888     3.998906
 C     1.010985     3.798274     2.257665
 F     0.739411     4.921154     2.917668
