 110
scf done:    -3515.726965
 C     0.027641     1.172432     2.768762
 H     0.287260     0.703576     3.726401
 H     0.589091     2.110164     2.654314
 C    -1.437680     1.296164     2.521472
 H    -2.074640     0.792086     3.260440
 H    -1.799153     2.326035     2.378310
 H    -1.737445     0.803564     1.507824
Co    -0.193902     0.023163     1.203738
 C     0.578332     2.828048    -0.841595
 C     2.677439     1.795529     0.844819
 C     1.887678     0.412511    -1.531724
 C    -0.397824    -2.452978    -1.309765
 C    -2.756047    -2.035140     0.278995
 C    -1.994459    -0.082636    -1.702747
 P    -1.266869    -1.109864    -0.341668
 P     1.142743     1.225346    -0.036148
 C     0.419381    -1.298708     2.102655
 O     0.934321    -2.116804     2.745202
 H    -0.098237     2.475945    -1.645240
 C     1.660204     3.699539    -1.482328
 H     2.260961     3.124826    -2.204044
 H     2.358854     4.043230    -0.699896
 C     1.060080     4.921718    -2.173804
 H     1.861264     5.536985    -2.615184
 H     0.425855     4.586848    -3.014999
 C     0.219729     5.750736    -1.210276
 H    -0.234787     6.608530    -1.732184
 H     0.877346     6.174230    -0.429475
 C    -0.854859     4.895571    -0.551057
 H    -1.576041     4.567881    -1.320932
 H    -1.429712     5.488432     0.179125
 C    -0.260284     3.664232     0.124769
 H     0.372005     3.985469     0.972789
 H    -1.055666     3.040901     0.556188
 H     3.437657     2.050280     0.086187
 H     2.424265     2.742497     1.352209
 C     3.244771     0.816818     1.863183
 H     2.490337     0.631694     2.641325
 H     3.416167    -0.167067     1.398100
 C     4.537357     1.306271     2.499695
 H     4.364457     2.292416     2.969610
 H     5.297321     1.481009     1.715094
 C     5.097545     0.344068     3.537924
 H     4.333725     0.171066     4.316118
 H     5.262640    -0.639854     3.064318
 C     6.387501     0.827367     4.180441
 H     6.765909     0.110189     4.924762
 H     6.241652     1.792109     4.693046
 H     7.179251     0.973817     3.427676
 H     1.046336     0.086510    -2.166702
 H     2.437176     1.166899    -2.117779
 C     2.806670    -0.762274    -1.234307
 H     3.706823    -0.397187    -0.712837
 H     2.310902    -1.449451    -0.527886
 C     3.238513    -1.519657    -2.482064
 H     3.648461    -0.808935    -3.222607
 H     2.350292    -1.967146    -2.965933
 C     4.266272    -2.608138    -2.205220
 H     5.188337    -2.141818    -1.816153
 H     3.898002    -3.254801    -1.389562
 C     4.589571    -3.456685    -3.423809
 H     5.349629    -4.220257    -3.199562
 H     4.971809    -2.838988    -4.252509
 H     3.692005    -3.980007    -3.792634
 H     0.412867    -1.918045    -1.833064
 C    -1.261924    -3.146313    -2.367797
 H    -1.681112    -2.413091    -3.072903
 H    -2.120615    -3.637676    -1.877451
 C    -0.471230    -4.197831    -3.142195
 H    -1.124865    -4.685207    -3.883967
 H     0.330589    -3.697673    -3.715912
 C     0.148990    -5.229570    -2.209932
 H     0.736759    -5.965047    -2.782916
 H    -0.656517    -5.796471    -1.708492
 C     1.018546    -4.550773    -1.161047
 H     1.882056    -4.080375    -1.661745
 H     1.435066    -5.291553    -0.459798
 C     0.253432    -3.484191    -0.383902
 H    -0.524739    -3.976162     0.226740
 H     0.924331    -2.988416     0.330022
 H    -3.480007    -2.140941    -0.546996
 H    -2.406201    -3.052917     0.519750
 C    -3.420191    -1.443484     1.512004
 H    -2.656158    -1.337524     2.299131
 H    -3.774287    -0.419406     1.301480
 C    -4.583190    -2.278359     2.026019
 H    -4.229369    -3.304090     2.237641
 H    -5.345085    -2.383715     1.231594
 C    -5.232250    -1.700644     3.276172
 H    -4.463890    -1.594210     4.062226
 H    -5.580666    -0.674755     3.060582
 C    -6.389691    -2.535173     3.799778
 H    -6.836015    -2.091540     4.702680
 H    -6.061387    -3.554849     4.058165
 H    -7.188098    -2.629273     3.045927
 H    -1.141660     0.316873    -2.278710
 H    -2.573142    -0.719604    -2.390586
 C    -2.858735     1.062938    -1.199572
 H    -3.765146     0.659302    -0.715683
 H    -2.309576     1.603869    -0.411508
 C    -3.265237     2.046776    -2.286428
 H    -3.765695     1.508894    -3.112053
 H    -2.354102     2.490164    -2.729584
 C    -4.173216     3.158505    -1.779347
 H    -5.109084     2.713964    -1.397399
 H    -3.697186     3.641067    -0.907569
 C    -4.492038     4.207242    -2.831895
 H    -5.161070     4.987945    -2.439628
 H    -4.983166     3.757687    -3.709926
 H    -3.575057     4.704440    -3.188323
