 102
scf done:    -4333.030627
 C    -0.828172     0.260041    -3.608637
 H    -0.761172    -0.443750    -4.447834
 H    -1.828697     0.707312    -3.568345
 C     0.295518     1.234729    -3.520704
 H     1.061347     1.139913    -4.304310
 H    -0.010157     2.288368    -3.435472
 H     0.930628     1.078548    -2.551896
Co     0.000489    -0.262479    -1.923586
 C    -1.434491     2.093860     0.120566
 C    -3.319332     0.531421    -1.357278
 C    -2.049436    -0.693529     0.762768
 C     1.343372    -1.447674     1.031399
 C     3.148439    -1.171051    -1.162696
 C     2.277868     1.143540     0.253477
 P     1.623390    -0.424233    -0.458077
 P    -1.628441     0.432531    -0.630543
 C     0.042455    -1.908237    -2.381819
 O    -0.028972    -3.035913    -2.648095
 C    -1.576325     3.210360    -0.725504
 H    -1.964346     3.074191    -1.739319
 C    -0.926645     2.317742     1.401781
 H    -0.785957     1.476895     2.082122
 C    -1.224748     4.482638    -0.306612
 H    -1.329348     5.347028    -0.965365
 C    -0.563527     3.592856     1.837428
 H    -0.146705     3.713019     2.837426
 C    -0.698065     4.685289     0.978078
 O    -0.333827     5.947470     1.279442
 C     0.343209     6.183073     2.484011
 H     1.298842     5.631873     2.523866
 H     0.553850     7.259685     2.517973
 H    -0.271684     5.916547     3.361830
 C    -4.291931     1.456567    -0.952278
 H    -4.036889     2.234949    -0.229163
 C    -3.691863    -0.459923    -2.267985
 H    -2.945775    -1.191737    -2.589348
 C    -5.583845     1.400544    -1.454270
 H    -6.344548     2.121100    -1.147465
 C    -4.988570    -0.536155    -2.772709
 H    -5.237780    -1.326522    -3.481100
 C    -5.944855     0.402752    -2.369807
 O    -7.221471     0.424213    -2.804402
 C    -7.639501    -0.554785    -3.712326
 H    -7.546293    -1.572317    -3.292891
 H    -8.697402    -0.355569    -3.926364
 H    -7.070303    -0.509846    -4.657891
 C    -1.808759    -2.060850     0.565937
 H    -1.318365    -2.392235    -0.350120
 C    -2.700432    -0.304424     1.935163
 H    -2.957120     0.744835     2.097320
 C    -2.177540    -2.997078     1.515491
 H    -1.987552    -4.060035     1.358873
 C    -3.036358    -1.233250     2.921880
 H    -3.517746    -0.887681     3.837309
 C    -2.762179    -2.590032     2.719322
 O    -3.018361    -3.567371     3.615601
 C    -3.414169    -3.204154     4.907255
 H    -4.395058    -2.696843     4.914213
 H    -3.497409    -4.133724     5.485269
 H    -2.666635    -2.549431     5.388505
 C     0.924400    -0.871050     2.239196
 H     0.882162     0.215080     2.331856
 C     1.393973    -2.841842     0.950949
 H     1.704379    -3.320786     0.018424
 C     0.557619    -1.654667     3.319345
 H     0.212312    -1.207358     4.252899
 C     1.031856    -3.643758     2.032866
 H     1.070107    -4.728165     1.927040
 C     0.589656    -3.050818     3.220869
 O     0.166174    -3.729157     4.305784
 C    -0.006972    -5.115616     4.208157
 H     0.946161    -5.638869     4.016100
 H    -0.403029    -5.450949     5.175205
 H    -0.732366    -5.375568     3.418917
 C     4.183470    -1.696851    -0.372737
 H     4.075212    -1.737940     0.713607
 C     3.310534    -1.174425    -2.547748
 H     2.493153    -0.799455    -3.169120
 C     5.338651    -2.195431    -0.951481
 H     6.144224    -2.614956    -0.345795
 C     4.470765    -1.664639    -3.146258
 H     4.555980    -1.651759    -4.232995
 C     5.495958    -2.178650    -2.346146
 O     6.651925    -2.682539    -2.819320
 C     6.862367    -2.702107    -4.203291
 H     6.852453    -1.685559    -4.634753
 H     7.852761    -3.146229    -4.365068
 H     6.106697    -3.315414    -4.725118
 C     1.869132     2.373302    -0.277558
 H     1.127803     2.393721    -1.076661
 C     3.199913     1.160018     1.305081
 H     3.540286     0.221993     1.748410
 C     2.356468     3.572643     0.219473
 H     2.023364     4.529275    -0.186225
 C     3.686651     2.355064     1.829349
 H     4.394073     2.323412     2.658306
 C     3.257455     3.573618     1.288993
 O     3.640311     4.784808     1.749911
 C     4.578827     4.846733     2.787463
 H     5.531856     4.365890     2.506063
 H     4.762742     5.910878     2.982861
 H     4.203206     4.373798     3.712276
