  78
scf done:    -4043.106586
 C    -0.838036    -0.026352    -3.341786
 H    -0.687961    -0.775734    -4.128643
 H    -1.883616     0.303014    -3.326097
 C     0.165279     1.074171    -3.327670
 H     0.941092     1.011791    -4.104365
 H    -0.259840     2.088768    -3.317682
 H     0.808708     1.063584    -2.350298
Co     0.040836    -0.332396    -1.628841
 C    -1.582781     1.950639     0.362343
 C    -3.333801     0.210964    -1.096037
 C    -1.992367    -0.840924     1.061574
 C     1.568640    -1.338275     1.286085
 C     3.292810    -0.729567    -0.900513
 C     2.097616     1.400106     0.546379
 P     1.670756    -0.239149    -0.175329
 P    -1.637356     0.266066    -0.368572
 C     0.246179    -1.992856    -1.984407
 O     0.291152    -3.133471    -2.186032
 C    -1.160703     2.208041     1.672266
 C    -1.796822     3.043304    -0.494052
 C    -1.223628     4.590836     1.271500
 C    -1.628501     4.349105    -0.042206
 C    -0.984622     3.515336     2.123088
 H    -0.968687     1.377335     2.353305
 H    -0.652952     3.691837     3.149036
 H    -1.087011     5.614955     1.626215
 H    -1.813872     5.184869    -0.721611
 H    -2.107025     2.867080    -1.528326
 C    -3.632959    -0.887826    -1.913377
 H    -2.842446    -1.603249    -2.155432
 C    -4.354211     1.117058    -0.788952
 H    -4.152196     1.973254    -0.141933
 C    -4.914590    -1.079484    -2.417353
 H    -5.158410    -1.932108    -3.053628
 C    -5.640897     0.943805    -1.295285
 H    -6.444788     1.645891    -1.066471
 C    -5.903820    -0.154103    -2.104029
 F    -7.131519    -0.324745    -2.589996
 C    -2.817491    -0.460459     2.128237
 H    -3.232909     0.549018     2.168290
 C    -1.528312    -2.159028     1.008234
 H    -0.903149    -2.475098     0.173114
 C    -3.130664    -1.357772     3.144287
 H    -3.764467    -1.072532     3.985968
 C    -1.853131    -3.074895     2.003885
 H    -1.489879    -4.102852     1.971755
 C    -2.637577    -2.656077     3.068944
 F    -2.932040    -3.518011     4.040913
 C     1.883172    -2.695449     1.137117
 C     1.068938    -0.888900     2.513825
 C     1.235360    -3.117457     3.427279
 C     0.907664    -1.771619     3.578790
 C     1.720161    -3.577026     2.203044
 H     2.255554    -3.066061     0.178771
 H     1.972850    -4.632133     2.073842
 H     1.104660    -3.810687     4.261408
 H     0.514263    -1.405649     4.529855
 H     0.805843     0.162496     2.640854
 C     3.404215    -0.826307    -2.290194
 H     2.510633    -0.667182    -2.898522
 C     4.426139    -0.972831    -0.112939
 H     4.359034    -0.926417     0.976008
 C     4.619209    -1.143272    -2.893019
 H     4.718378    -1.224454    -3.976854
 C     5.644313    -1.297464    -0.698199
 H     6.534390    -1.496823    -0.098785
 C     5.724763    -1.373561    -2.085741
 F     6.889402    -1.683060    -2.648458
 C     2.918393     1.551269     1.673141
 H     3.289765     0.673727     2.205848
 C     1.633604     2.551121    -0.098406
 H     0.966853     2.454793    -0.955530
 C     3.261221     2.813943     2.145069
 H     3.893535     2.943818     3.025191
 C     1.981070     3.821307     0.349216
 H     1.612732     4.720488    -0.145892
 C     2.788124     3.935423     1.472104
 F     3.111534     5.145087     1.922281
