  70
scf done:    -3265.995999
 C    -0.678012    -3.826158     0.648622
 H    -0.056509    -4.728749     0.600159
 H    -1.223403    -3.802226     1.599782
 C    -1.529593    -3.592815    -0.554518
 H    -1.408629    -4.327825    -1.362743
 H    -2.601978    -3.465634    -0.339429
 H    -1.275343    -2.581325    -1.082807
Co     0.084610    -2.179345    -0.060540
 C    -1.826746     0.461377     1.003190
 C    -1.472641    -1.564407     2.980756
 C     0.727108     0.147705     2.301045
 C     1.650014     0.695106    -1.065460
 C     1.491900    -1.354109    -3.013533
 C    -0.855265     0.240527    -2.367461
 P     0.541441    -0.676328    -1.571173
 P    -0.621717    -0.834083     1.500275
 C     1.668375    -2.798188     0.055409
 O     2.751799    -3.173424     0.249343
 C    -3.109832     0.053535     0.594668
 H    -3.396197    -0.998731     0.683578
 C    -1.499104     1.809291     0.837990
 H    -0.509458     2.173478     1.118232
 C    -4.019523     0.947652     0.055399
 H    -5.014187     0.627807    -0.261256
 C    -2.400044     2.723594     0.284375
 H    -2.094866     3.764302     0.170098
 C    -3.670267     2.296662    -0.112224
 O    -4.610228     3.093666    -0.659065
 C    -4.309584     4.444884    -0.862730
 H    -3.452855     4.576703    -1.547733
 H    -5.198637     4.901640    -1.315735
 H    -4.086056     4.964670     0.085838
 H    -2.305030    -2.174398     2.592963
 C    -0.542208    -2.421248     3.828179
 H     0.192887    -1.807653     4.369648
 H     0.020849    -3.132281     3.206013
 H    -1.927365    -0.755154     3.573786
 H    -1.107600    -2.994988     4.578580
 H     1.164512     0.769117     1.505218
 C     0.377464     0.982331     3.524065
 H     0.086161     0.356999     4.380398
 H    -0.454534     1.675140     3.329939
 H     1.508315    -0.593691     2.533982
 H     1.243764     1.584824     3.840175
 C     1.314727     2.054085    -1.157490
 H     0.365218     2.361585    -1.597081
 C     2.881441     0.366367    -0.485036
 H     3.167918    -0.681862    -0.369853
 C     2.167734     3.039459    -0.678080
 H     1.905224     4.097217    -0.743309
 C     3.753633     1.344062    -0.013570
 H     4.700242     1.038589     0.432516
 C     3.396306     2.695467    -0.100456
 O     4.158341     3.714778     0.339039
 C     5.393078     3.426856     0.934344
 H     6.075000     2.909457     0.236847
 H     5.838256     4.389237     1.216618
 H     5.276990     2.807518     1.841219
 H     2.512162    -1.502855    -2.624260
 C     0.955998    -2.671600    -3.549739
 H    -0.010447    -2.552938    -4.061041
 H     0.813320    -3.381747    -2.720323
 H     1.558715    -0.578371    -3.794833
 H     1.658105    -3.117670    -4.270419
 H    -0.433461     0.854005    -3.181468
 C    -2.002962    -0.616177    -2.877151
 H    -2.459269    -1.191511    -2.059512
 H    -1.690095    -1.323996    -3.657967
 H    -1.241767     0.931474    -1.603118
 H    -2.791537     0.022618    -3.302761
