  62
scf done:    -3037.098086
 C     0.451617    -3.383904    -0.328693
 H    -0.209851    -4.196267    -0.653874
 H     1.416202    -3.462524    -0.844488
 C     0.554470    -3.220272     1.150758
 H    -0.066260    -3.908806     1.741259
 H     1.582838    -3.232957     1.543735
 H     0.181059    -2.170530     1.503252
Co    -0.352144    -1.627982    -0.070882
 C     2.196549     0.662080     0.155949
 C     2.623319    -1.339720    -1.826814
 C     0.664247     0.704544    -2.288347
 C    -1.859978     1.451092     0.058368
 C    -3.009101    -0.539334     1.700197
 C    -0.502399     0.721623     2.476077
 P    -1.358820    -0.034113     1.019970
 P     1.244657    -0.446788    -0.961973
 C    -1.689127    -2.049613    -1.040828
 O    -2.538478    -2.301775    -1.792685
 C     1.998097     2.048552     0.216625
 C     3.051487     0.075301     1.102378
 C     3.479063     2.223728     2.121948
 C     3.690538     0.845030     2.069890
 C     2.631110     2.820450     1.191391
 H     1.327503     2.538473    -0.491435
 H     2.458362     3.899468     1.220690
 H     3.974578     2.828775     2.884731
 H     4.352504     0.364872     2.794952
 H     3.206398    -1.007704     1.092870
 H     3.041579    -2.053543    -1.098671
 C     2.148365    -2.075954    -3.071758
 H     1.885565    -1.377890    -3.880289
 H     1.255000    -2.681291    -2.858747
 H     3.427745    -0.625171    -2.062491
 H     2.932722    -2.745170    -3.457323
 H    -0.034438     1.402841    -1.803989
 C     1.713479     1.447711    -3.101005
 H     2.325290     0.764250    -3.707584
 H     2.401631     2.022381    -2.463529
 H     0.025874     0.080966    -2.934739
 H     1.232772     2.156495    -3.793522
 C    -2.635049     1.250404    -1.095053
 C    -1.463332     2.755015     0.378164
 C    -2.588076     3.616556    -1.581887
 C    -1.819757     3.828080    -0.440094
 C    -3.001405     2.322866    -1.902227
 H    -2.937176     0.240222    -1.381338
 H    -3.603362     2.143915    -2.796285
 H    -2.865751     4.457497    -2.221736
 H    -1.494410     4.837828    -0.177399
 H    -0.860481     2.948777     1.266000
 H    -3.665432    -0.598888     0.816960
 C    -3.000339    -1.878462     2.419075
 H    -2.461000    -1.834841     3.376662
 H    -2.511753    -2.638250     1.789291
 H    -3.399320     0.274266     2.334421
 H    -4.025775    -2.215489     2.633574
 H    -1.226760     1.372736     2.993898
 C     0.137368    -0.260245     3.444933
 H     0.918174    -0.850011     2.944945
 H    -0.588390    -0.958824     3.884967
 H     0.285795     1.370480     2.065522
 H     0.619839     0.283968     4.270772
