 102
scf done:    -4207.485655
 C    -0.760378     0.842503    -3.308943
 H    -0.294563     0.506481    -4.243858
 H    -1.849711     0.732567    -3.388967
 C    -0.286573     2.179107    -2.832141
 H     0.593667     2.563045    -3.364032
 H    -1.056963     2.964255    -2.799692
 H     0.027819     2.147642    -1.707679
Co     0.097885     0.385209    -1.617165
 C    -3.326292     0.684359    -0.485738
 C    -2.399994    -1.888914    -1.484462
 C    -1.566406    -0.948711     1.119831
 C     1.971835    -0.947579     0.990489
 C     3.129764     1.220800    -0.755109
 C     1.231278     1.818207     1.366661
 P     1.545812     0.575372     0.007666
 P    -1.747515    -0.339072    -0.655160
 C     1.211526    -0.511633    -2.542520
 O     1.975461    -1.050919    -3.231980
 H    -3.219321     1.112465     0.528076
 C    -4.653041    -0.079053    -0.507759
 H    -4.637892    -0.925165     0.191987
 H    -4.808711    -0.502280    -1.515476
 C    -5.824437     0.838866    -0.167741
 H    -6.767933     0.270625    -0.208076
 H    -5.714885     1.181035     0.877215
 C    -5.885647     2.045769    -1.095015
 H    -6.708268     2.718346    -0.802605
 H    -6.112870     1.704509    -2.121235
 C    -4.558372     2.793718    -1.102147
 H    -4.390534     3.230136    -0.099688
 H    -4.590534     3.639894    -1.807790
 C    -3.393842     1.870331    -1.445218
 H    -3.518059     1.508651    -2.480206
 H    -2.446233     2.422669    -1.415993
 H    -3.256626    -2.273617    -0.912976
 H    -2.779720    -1.551612    -2.461190
 C    -1.360670    -2.950573    -1.669500
 C    -0.529937    -2.947843    -2.796726
 H    -0.682089    -2.191294    -3.567732
 C    -1.153015    -3.949134    -0.709343
 H    -1.804036    -4.006752     0.164458
 C     0.496419    -3.875366    -2.946156
 H     1.162626    -3.849489    -3.809358
 C    -0.136228    -4.891685    -0.842496
 H     0.027724    -5.667869    -0.093282
 C     0.690261    -4.828277    -1.955455
 F     1.693158    -5.702290    -2.070650
 H    -0.962893    -1.865589     1.038498
 H    -0.927630    -0.195856     1.602434
 C    -2.784651    -1.168037     1.960697
 C    -3.290889    -0.126925     2.752630
 H    -2.755560     0.825740     2.793744
 C    -3.473345    -2.388721     1.980880
 H    -3.096292    -3.232223     1.401300
 C    -4.457416    -0.273138     3.497607
 H    -4.851484     0.539576     4.110365
 C    -4.639814    -2.557782     2.721642
 H    -5.176308    -3.508122     2.733439
 C    -5.126845    -1.489800     3.464398
 F    -6.245325    -1.640121     4.171134
 H     0.989757    -1.209841     1.420941
 C     2.940117    -0.786109     2.166698
 H     2.589235     0.000090     2.853241
 H     3.928033    -0.467219     1.806417
 C     3.097624    -2.099633     2.928535
 H     3.816672    -1.964951     3.752761
 H     2.133664    -2.372545     3.396292
 C     3.542117    -3.227153     2.005024
 H     3.648272    -4.168469     2.568143
 H     4.542830    -2.990162     1.600188
 C     2.558284    -3.400445     0.855845
 H     1.581180    -3.718156     1.262319
 H     2.878132    -4.202861     0.172063
 C     2.363292    -2.107891     0.071794
 H     3.294012    -1.861981    -0.467237
 H     1.585943    -2.246012    -0.693744
 H     3.246572     0.636992    -1.677917
 H     2.860062     2.238357    -1.082256
 C     4.414763     1.201012     0.013899
 C     4.724181     2.143534     1.003320
 H     4.037374     2.966784     1.208510
 C     5.356050     0.193317    -0.241755
 H     5.153409    -0.537906    -1.028345
 C     5.899427     2.060740     1.746031
 H     6.139227     2.791409     2.520515
 C     6.536426     0.093386     0.487741
 H     7.265841    -0.694547     0.291732
 C     6.788734     1.025980     1.486556
 F     7.912111     0.936968     2.196055
 H     0.564659     1.321466     2.088698
 H     2.173439     2.023350     1.894811
 C     0.597287     3.072851     0.851738
 C    -0.797165     3.197421     0.812046
 H    -1.417658     2.388615     1.203692
 C     1.362061     4.128264     0.338135
 H     2.452331     4.072957     0.361277
 C    -1.412613     4.328562     0.284804
 H    -2.498290     4.431414     0.258105
 C     0.765175     5.263314    -0.205425
 H     1.360072     6.085601    -0.606512
 C    -0.620613     5.347503    -0.228135
 F    -1.202075     6.428914    -0.743760
