  86
scf done:    -3201.437754
 C     0.906928    -1.677522     2.792619
 H     0.270553    -2.274016     3.459197
 H     1.879952    -2.166781     2.681088
 C     0.967921    -0.233130     3.133873
 H     0.381937     0.068088     4.013740
 H     1.986452     0.177343     3.213123
 H     0.512179     0.432411     2.283420
Co     0.021343    -0.874648     1.243234
 C     2.360148     0.913001    -0.715588
 C     3.296297    -1.621341     0.540307
 C     1.573978    -1.613784    -1.869597
 C    -2.436714     0.205502    -1.038391
 C    -2.986095     0.544330     1.839910
 C    -0.975504     2.328381     0.414063
 P    -1.570654     0.549659     0.593359
 P     1.766936    -0.792820    -0.186491
 C    -0.960976    -2.256299     1.232115
 O    -1.557655    -3.253891     1.240364
 H     1.413639     1.330940    -1.108878
 C     3.398947     1.097347    -1.827537
 H     3.167561     0.477031    -2.705488
 H     4.389872     0.774582    -1.480874
 C     3.488698     2.567537    -2.231603
 H     4.229943     2.694560    -3.037574
 H     2.517624     2.893118    -2.648431
 C     3.848115     3.445580    -1.037932
 H     3.879997     4.507230    -1.332435
 H     4.867726     3.187537    -0.698249
 C     2.871739     3.242376     0.114826
 H     1.877947     3.623998    -0.183314
 H     3.179387     3.834909     0.991988
 C     2.736275     1.770522     0.493929
 H     3.690932     1.410546     0.918329
 H     1.981883     1.649622     1.284358
 H     3.318117    -1.179581     1.552380
 C     3.092850    -3.127934     0.705221
 H     3.768452    -3.515932     1.484553
 H     2.062603    -3.385194     0.986200
 H     3.340379    -3.657994    -0.227016
 C     4.652340    -1.359837    -0.103136
 H     4.981031    -0.319041     0.010544
 H     5.415822    -1.993416     0.378583
 H     4.658464    -1.607111    -1.176485
 H     2.592075    -1.708249    -2.288642
 C     0.954056    -3.007158    -1.784475
 H     0.779094    -3.397266    -2.800431
 H     1.590070    -3.727281    -1.259765
 H    -0.011490    -2.990655    -1.259676
 C     0.742885    -0.744157    -2.810147
 H     1.220361     0.212208    -3.058977
 H     0.564129    -1.278736    -3.756781
 H    -0.236801    -0.522158    -2.369203
 H    -1.746799     0.655897    -1.778313
 C    -3.828876     0.798911    -1.276658
 H    -3.842695     1.883336    -1.111453
 H    -4.534851     0.357468    -0.552809
 C    -4.328472     0.495769    -2.688116
 H    -5.327584     0.939129    -2.830622
 H    -3.663090     0.988673    -3.420604
 C    -4.362063    -1.001197    -2.963548
 H    -4.690503    -1.198499    -3.996941
 H    -5.111478    -1.472815    -2.302411
 C    -2.999000    -1.626991    -2.702208
 H    -2.276809    -1.249363    -3.448663
 H    -3.038545    -2.720057    -2.836096
 C    -2.485187    -1.300586    -1.305568
 H    -3.131313    -1.783809    -0.552436
 H    -1.485426    -1.722529    -1.151608
 H    -3.553279    -0.342957     1.500521
 C    -2.490394     0.240142     3.249991
 H    -3.345996     0.053539     3.918977
 H    -1.837921    -0.642848     3.254892
 H    -1.924954     1.087234     3.668972
 C    -3.931770     1.742379     1.870887
 H    -4.347339     2.003297     0.891982
 H    -4.779623     1.522079     2.540234
 H    -3.434342     2.635503     2.275789
 H    -0.032373     2.151693    -0.128775
 C    -1.792312     3.306271    -0.422568
 H    -1.237116     4.254645    -0.516127
 H    -1.973034     2.937343    -1.441612
 H    -2.762721     3.543347     0.036337
 C    -0.603954     2.951657     1.757100
 H    -0.007348     2.278842     2.387508
 H    -0.008162     3.864263     1.595763
 H    -1.494983     3.241290     2.332352
