 102
scf done:    -3859.208865
 C    -0.878951     0.184726    -3.466957
 H    -0.564505    -0.407979    -4.334539
 H    -1.967027     0.315140    -3.486687
 C    -0.104407     1.442866    -3.264069
 H     0.701450     1.617842    -3.991155
 H    -0.719868     2.352960    -3.184018
 H     0.465622     1.446076    -2.245326
Co     0.018517    -0.176855    -1.773836
 C    -1.485301     1.495864     0.788490
 C    -3.309965     0.625306    -1.237911
 C    -2.081439    -1.326261     0.702342
 C     1.493012    -1.240810     1.098391
 C     3.223384    -0.805598    -1.135015
 C     2.112435     1.517576     0.479875
 P     1.683607    -0.107558    -0.335429
 P    -1.699960     0.119344    -0.417391
 C     0.434146    -1.717880    -2.350923
 O     0.652259    -2.799683    -2.720624
 C    -1.264669     1.330680     2.161438
 H    -1.296764     0.336869     2.608415
 C    -1.430240     2.802156     0.272583
 H    -1.583474     2.966334    -0.797668
 C    -0.983236     2.418314     2.990118
 H    -0.800584     2.288690     4.058706
 C    -1.179092     3.899719     1.086328
 H    -1.143713     4.914192     0.685176
 C    -0.944317     3.691227     2.441716
 F    -0.659872     4.735347     3.219538
 H    -2.946792     1.333740    -2.008085
 C    -4.371056     1.368878    -0.424106
 H    -3.928334     2.213091     0.124176
 H    -4.799789     0.698426     0.336743
 C    -5.487714     1.868731    -1.338508
 H    -6.256477     2.389036    -0.744012
 H    -5.073003     2.620918    -2.034535
 C    -6.114223     0.733958    -2.141600
 H    -6.884710     1.125431    -2.825638
 H    -6.634864     0.048091    -1.448531
 C    -5.060287    -0.050067    -2.915773
 H    -4.620437     0.595358    -3.697868
 H    -5.521621    -0.901999    -3.441163
 C    -3.948645    -0.542949    -1.995128
 H    -4.379078    -1.251510    -1.267501
 H    -3.186030    -1.100064    -2.560158
 H    -1.206943    -1.327072     1.379878
 C    -2.046647    -2.673703    -0.026031
 H    -1.115122    -2.764222    -0.600475
 H    -2.864515    -2.721811    -0.762964
 C    -2.185791    -3.836599     0.952038
 H    -2.202343    -4.788467     0.396522
 H    -1.291491    -3.868379     1.596596
 C    -3.421552    -3.709753     1.834008
 H    -3.462259    -4.537775     2.560280
 H    -4.330115    -3.797440     1.210467
 C    -3.441884    -2.365943     2.551811
 H    -2.589206    -2.312472     3.253843
 H    -4.354941    -2.264016     3.161002
 C    -3.347138    -1.214626     1.555228
 H    -4.229412    -1.252974     0.895134
 H    -3.395502    -0.246603     2.076258
 C     1.456551    -2.622005     0.844431
 H     1.570171    -2.995598    -0.175705
 C     1.310761    -0.809692     2.417971
 H     1.329129     0.253146     2.659381
 C     1.259441    -3.540105     1.869173
 H     1.234990    -4.613652     1.674574
 C     1.088667    -1.717465     3.453245
 H     0.939039    -1.384335     4.481958
 C     1.067851    -3.074389     3.165179
 F     0.848487    -3.948723     4.144700
 H     2.809575    -1.735222    -1.565660
 C     4.419552    -1.220783    -0.279466
 H     4.092645    -1.832546     0.575595
 H     4.920719    -0.336087     0.140315
 C     5.424235    -1.990657    -1.134598
 H     6.294008    -2.282814    -0.523872
 H     4.958708    -2.930179    -1.483427
 C     5.872551    -1.171249    -2.340784
 H     6.573371    -1.752558    -2.961734
 H     6.433777    -0.287400    -1.985590
 C     4.684431    -0.705244    -3.175901
 H     4.190465    -1.581297    -3.632746
 H     5.024791    -0.069628    -4.009586
 C     3.661812     0.043982    -2.327707
 H     4.107848     0.987901    -1.966986
 H     2.776258     0.309303    -2.927928
 H     1.266649     1.658389     1.178374
 C     2.067613     2.712406    -0.477874
 H     1.097949     2.738757    -0.994052
 H     2.838681     2.597663    -1.258388
 C     2.279594     4.031899     0.260709
 H     2.294120     4.862859    -0.463441
 H     1.413689     4.209339     0.919848
 C     3.546437     4.035849     1.105829
 H     3.628882     4.981709     1.665100
 H     4.432055     3.985057     0.446458
 C     3.567129     2.844731     2.054941
 H     2.741359     2.939288     2.783870
 H     4.501093     2.829856     2.639828
 C     3.415844     1.539494     1.281083
 H     4.262117     1.455862     0.580232
 H     3.486140     0.673418     1.955970
