 106
scf done:    -4111.510254
 C    -0.453858     2.789043    -1.974424
 H    -1.296930     3.433749    -1.700618
 H     0.445874     3.368077    -2.216633
 C    -0.770526     1.682280    -2.900522
 H    -1.805069     1.683563    -3.270571
 H    -0.057332     1.550773    -3.726577
 H    -0.749315     0.598541    -2.394242
Co    -0.212035     1.193910    -0.845013
 C     1.678017    -1.262004    -2.280657
 O     3.134179     0.552156    -1.154610
 O     1.715602    -0.854710     0.488152
 C    -1.402318    -0.640246     1.778717
 O    -2.972078     1.236111     0.757998
 O    -2.670636    -0.922104    -0.688045
 P    -1.776823     0.196878     0.181136
 P     1.563577     0.007574    -0.940723
 C     0.097259     2.276616     0.422992
 O     0.290546     3.026280     1.280582
 H     1.305874    -0.683687    -3.150799
 C     0.674601    -2.384929    -2.019668
 H    -0.316817    -1.961139    -1.798321
 H     0.981228    -2.934153    -1.112202
 C     0.601058    -3.353770    -3.193776
 H    -0.096250    -4.174364    -2.960987
 H     0.181199    -2.828755    -4.071129
 C     1.977849    -3.904002    -3.546655
 H     1.912648    -4.577770    -4.416269
 H     2.347505    -4.518596    -2.705277
 C     2.968211    -2.777373    -3.817120
 H     2.649810    -2.227133    -4.721453
 H     3.966813    -3.186266    -4.041290
 C     3.059703    -1.802039    -2.646792
 H     3.504432    -2.309261    -1.775726
 H     3.733352    -0.968916    -2.887600
 C     3.733778     1.658843    -0.619301
 C     3.098040     2.897950    -0.588696
 H     2.096204     2.980832    -1.005896
 C     5.049454     1.500828    -0.149592
 C     5.754325     0.186557    -0.281552
 H     5.202526    -0.623005     0.216163
 H     5.850027    -0.101718    -1.340422
 H     6.761202     0.238038     0.154137
 C     3.741378     3.994978    -0.019927
 H     3.228090     4.958327     0.018246
 C     5.670577     2.619833     0.410948
 H     6.690802     2.513328     0.789988
 C     5.027100     3.854631     0.493969
 H     5.537904     4.707611     0.946167
 C     2.805807    -1.286075     1.187240
 C     3.371253    -2.531398     0.915872
 H     2.951365    -3.138742     0.113351
 C     3.271931    -0.492999     2.250720
 C     2.608987     0.806817     2.581135
 H     2.743512     1.552848     1.783261
 H     1.523973     0.676475     2.710539
 H     3.019791     1.232211     3.506195
 C     4.448613    -2.990027     1.670464
 H     4.891058    -3.963828     1.448719
 C     4.355967    -0.976132     2.990029
 H     4.736747    -0.367789     3.814748
 C     4.950568    -2.204181     2.705115
 H     5.797585    -2.551864     3.300505
 H    -0.472886    -0.111625     2.062445
 C    -1.019557    -2.105928     1.555931
 H    -0.303925    -2.190955     0.726993
 H    -1.923196    -2.675380     1.279282
 C    -0.419805    -2.695364     2.827418
 H    -0.167716    -3.756162     2.666788
 H     0.533501    -2.181383     3.045500
 C    -1.369860    -2.545472     4.010461
 H    -0.904084    -2.935552     4.930000
 H    -2.269261    -3.161991     3.830320
 C    -1.794763    -1.093669     4.205362
 H    -0.914652    -0.493843     4.501507
 H    -2.517685    -1.012330     5.033380
 C    -2.394153    -0.500040     2.933120
 H    -3.328836    -1.028169     2.682564
 H    -2.658048     0.556144     3.083114
 C    -3.419870     2.276153    -0.008042
 C    -3.845963     2.071515    -1.320803
 H    -3.824640     1.062281    -1.736309
 C    -3.463422     3.546795     0.586691
 C    -3.033791     3.727782     2.009637
 H    -3.159496     4.771499     2.327830
 H    -3.622256     3.086042     2.683765
 H    -1.977547     3.451227     2.144805
 C    -4.291183     3.152123    -2.079885
 H    -4.619636     2.991917    -3.109565
 C    -3.919612     4.610217    -0.196934
 H    -3.954274     5.609106     0.246516
 C    -4.321968     4.426661    -1.519883
 H    -4.668186     5.279311    -2.108055
 C    -3.766800    -1.657687    -0.311676
 C    -4.814854    -1.120411     0.438420
 H    -4.759322    -0.087142     0.775415
 C    -3.820792    -2.983355    -0.778747
 C    -2.702115    -3.541769    -1.599912
 H    -2.943996    -4.550422    -1.961192
 H    -2.485034    -2.900546    -2.467426
 H    -1.772270    -3.599223    -1.012986
 C    -5.916381    -1.912575     0.756904
 H    -6.728819    -1.484328     1.348568
 C    -4.940252    -3.750171    -0.446743
 H    -4.989014    -4.782889    -0.802997
 C    -5.982483    -3.231686     0.319295
 H    -6.844718    -3.855113     0.565474
