 114
scf done:    -3668.050546
 C    -1.057272     0.446117    -3.117091
 H    -0.981598    -0.161974    -4.027612
 H    -2.097227     0.773829    -2.982255
 C    -0.050927     1.540976    -3.030883
 H     0.739276     1.501051    -3.790908
 H    -0.466876     2.560767    -3.007845
 H     0.515835     1.500616    -2.013268
Co    -0.035053    -0.099189    -1.534603
 C    -2.310247     1.766650     0.394514
 C    -3.367828    -0.623101    -0.999508
 C    -1.921757    -0.849997     1.494714
 C     2.068355    -1.559299     0.888137
 C     3.368300     0.085318    -1.113030
 C     1.614992     1.406322     1.001959
 P     1.739577    -0.047046    -0.181211
 P    -1.806293     0.033333    -0.159303
 C     0.360062    -1.538208    -2.369547
 O     0.529814    -2.501927    -2.994368
 H    -1.400913     2.082091     0.941818
 C    -3.495231     1.958514     1.342913
 H    -3.443723     1.274222     2.203254
 H    -4.430868     1.723153     0.808924
 C    -3.573448     3.403322     1.831419
 H    -4.423864     3.524509     2.522355
 H    -2.663564     3.638627     2.414167
 C    -3.693515     4.374797     0.663328
 H    -3.713186     5.416080     1.024246
 H    -4.659758     4.204280     0.154544
 C    -2.560703     4.176659    -0.335988
 H    -1.606942     4.480120     0.131885
 H    -2.697856     4.834236    -1.210018
 C    -2.445701     2.723781    -0.788685
 H    -3.339188     2.454027    -1.380410
 H    -1.582538     2.606447    -1.453452
 H    -3.667933     0.235110    -1.630061
 C    -4.566537    -0.974989    -0.111859
 H    -4.794996    -0.175646     0.604732
 H    -4.326109    -1.869845     0.488362
 C    -5.804724    -1.275898    -0.954752
 H    -6.653328    -1.528106    -0.297387
 H    -6.097382    -0.361451    -1.502570
 C    -5.548043    -2.400402    -1.950103
 H    -6.435188    -2.565860    -2.583303
 H    -5.383553    -3.341256    -1.393737
 C    -4.320729    -2.107189    -2.804072
 H    -4.529350    -1.242010    -3.460009
 H    -4.104066    -2.955857    -3.473128
 C    -3.097368    -1.793915    -1.950121
 H    -2.826539    -2.689344    -1.363699
 H    -2.227767    -1.575412    -2.578912
 H    -2.979062    -0.754068     1.794081
 C    -1.094002    -0.239317     2.625742
 H    -1.327956     0.828444     2.755859
 H    -0.025279    -0.290763     2.372194
 C    -1.315714    -0.978402     3.941981
 H    -0.697856    -0.526011     4.735256
 H    -2.367616    -0.851838     4.256829
 C    -1.006572    -2.463951     3.804290
 H    -1.200167    -2.989303     4.753575
 H     0.071705    -2.590849     3.595881
 C    -1.812899    -3.088808     2.672533
 H    -2.884569    -3.074961     2.942867
 H    -1.540678    -4.149477     2.544545
 C    -1.620122    -2.341265     1.356982
 H    -0.586631    -2.460531     1.003002
 H    -2.252689    -2.790363     0.577757
 H     1.314186    -1.480407     1.690498
 C     3.443829    -1.696058     1.550837
 H     3.713087    -0.798256     2.120392
 H     4.211920    -1.815347     0.767737
 C     3.497361    -2.916943     2.466704
 H     4.488933    -2.980896     2.943929
 H     2.766325    -2.787989     3.286185
 C     3.184990    -4.197437     1.705313
 H     3.190751    -5.065669     2.384174
 H     3.982813    -4.377394     0.962098
 C     1.847164    -4.084953     0.988134
 H     1.036876    -4.042384     1.738550
 H     1.654707    -4.982460     0.378635
 C     1.767254    -2.843034     0.106788
 H     2.481396    -2.938131    -0.730583
 H     0.776404    -2.776792    -0.358791
 H     3.613175    -0.983828    -1.267482
 C     4.556430     0.734357    -0.395752
 H     4.700804     0.316277     0.607613
 H     4.354493     1.809202    -0.257358
 C     5.840851     0.580941    -1.207308
 H     6.679036     1.061374    -0.676344
 H     6.094413    -0.492493    -1.280908
 C     5.691361     1.161388    -2.607798
 H     6.612848     1.005007    -3.191916
 H     5.553818     2.255533    -2.531271
 C     4.491651     0.555172    -3.324895
 H     4.681977    -0.517469    -3.510874
 H     4.356742     1.020300    -4.314982
 C     3.211728     0.691699    -2.508003
 H     2.946321     1.760276    -2.415868
 H     2.371570     0.203725    -3.020325
 H     0.557126     1.310285     1.295683
 C     1.711168     2.750301     0.272365
 H     1.070337     2.736892    -0.622085
 H     2.740934     2.918589    -0.083081
 C     1.302383     3.906307     1.179843
 H     1.407169     4.862114     0.641281
 H     0.230127     3.806314     1.427112
 C     2.110149     3.921700     2.470703
 H     1.778791     4.744837     3.124283
 H     3.171622     4.119539     2.234564
 C     1.997865     2.586445     3.194170
 H     0.950231     2.433055     3.512169
 H     2.603459     2.591165     4.115040
 C     2.419822     1.421021     2.301803
 H     3.497851     1.501590     2.086362
 H     2.274150     0.478249     2.850278
