 102
scf done:    -4333.152849
 C     1.401219    -1.017441    -3.418381
 H     1.285816    -0.646425    -4.443241
 H     2.465317    -1.019818    -3.144992
 C     0.674715    -2.283898    -3.104041
 H     0.149364    -2.738103    -3.955517
 H     1.292647    -3.036539    -2.592754
 H    -0.195393    -2.124930    -2.335369
Co     0.061232    -0.403858    -2.141439
 C     2.654165    -1.432761    -0.286082
 O     2.591640     1.197182    -1.157631
 O     1.018838     0.451156     0.743451
 C    -2.037735     1.185769    -0.015976
 O    -2.971971    -0.918444    -1.463491
 O    -1.357234    -1.416696     0.493831
 P    -1.548184    -0.371728    -0.798354
 P     1.568186    -0.043570    -0.759297
 C    -0.515181     0.853377    -3.174875
 O    -0.809925     1.771430    -3.810728
 C     3.865895    -1.775066    -0.908333
 H     4.333960    -1.100019    -1.626096
 C     2.088918    -2.350350     0.609409
 H     1.117066    -2.127721     1.059608
 C     4.504294    -2.970002    -0.609579
 H     5.451741    -3.236672    -1.081247
 C     2.723739    -3.549470     0.921083
 H     2.252563    -4.232702     1.628062
 C     3.945894    -3.864515     0.312749
 O     4.639927    -4.994791     0.544191
 C     4.125956    -5.930568     1.449892
 H     3.145743    -6.321983     1.125083
 H     4.843752    -6.759756     1.486978
 H     4.019186    -5.505818     2.463717
 C     3.950964     1.332521    -1.105878
 C     4.685078     1.223857     0.074238
 H     4.183113     1.001083     1.015092
 C     4.604840     1.615044    -2.306907
 H     4.008118     1.696124    -3.217596
 C     6.068157     1.385587     0.036533
 H     6.633376     1.288322     0.967668
 C     5.986061     1.777238    -2.324615
 H     6.485690     1.993733    -3.273236
 C     6.747118     1.663869    -1.154001
 C     8.234785     1.865986    -1.174848
 H     8.721060     1.366906    -0.324245
 H     8.491892     2.937205    -1.117418
 H     8.682453     1.474817    -2.100628
 C     1.738515     1.138237     1.676156
 C     1.842835     2.527393     1.576023
 H     1.360557     3.031430     0.737327
 C     2.337939     0.468049     2.740877
 H     2.248715    -0.616857     2.808345
 C     2.568574     3.232143     2.528140
 H     2.654642     4.318411     2.435356
 C     3.060115     1.191745     3.689761
 H     3.533777     0.658938     4.518972
 C     3.196689     2.580285     3.599070
 C     3.989192     3.357728     4.609882
 H     3.371454     4.128863     5.097065
 H     4.838316     3.876484     4.136665
 H     4.391795     2.703490     5.395865
 C    -1.725306     1.480877     1.317452
 H    -1.199620     0.741430     1.920342
 C    -2.652801     2.170204    -0.795354
 H    -2.886280     1.977648    -1.844772
 C    -2.044214     2.713232     1.863203
 H    -1.797012     2.956627     2.897960
 C    -2.983381     3.410176    -0.256888
 H    -3.470098     4.150470    -0.891398
 C    -2.683085     3.687283     1.082628
 O    -2.960031     4.853087     1.695039
 C    -3.588109     5.869158     0.963723
 H    -4.580079     5.555364     0.593788
 H    -3.716660     6.716326     1.649219
 H    -2.976007     6.194957     0.104439
 C    -4.252111    -0.452275    -1.324428
 C    -4.865868    -0.257575    -0.087635
 H    -4.323443    -0.461188     0.835319
 C    -4.956324    -0.183300    -2.498371
 H    -4.452543    -0.334138    -3.455161
 C    -6.177288     0.207933    -0.040326
 H    -6.644497     0.362977     0.936163
 C    -6.267791     0.275587    -2.432422
 H    -6.806662     0.485253    -3.360811
 C    -6.905252     0.481682    -1.202921
 C    -8.329712     0.951939    -1.136961
 H    -8.535548     1.483389    -0.196436
 H    -9.032439     0.103412    -1.193591
 H    -8.570535     1.628320    -1.970458
 C    -2.349743    -2.075064     1.166734
 C    -3.063528    -3.102610     0.545028
 H    -2.839396    -3.353288    -0.492169
 C    -2.619959    -1.751541     2.495052
 H    -2.046632    -0.963014     2.983338
 C    -4.063197    -3.768172     1.243800
 H    -4.624474    -4.560601     0.740846
 C    -3.620804    -2.434787     3.184339
 H    -3.825533    -2.169400     4.225185
 C    -4.369134    -3.444538     2.572518
 C    -5.473132    -4.153788     3.301716
 H    -6.459995    -3.864891     2.904219
 H    -5.464968    -3.916641     4.374900
 H    -5.389590    -5.246326     3.194838
