  94
scf done:    -4028.453728
 C    -0.748460    -2.444540    -1.903416
 H    -0.370555    -3.474314    -1.890750
 H    -1.830675    -2.418748    -2.077984
 C     0.055640    -1.479792    -2.685459
 H     0.939950    -1.893867    -3.192525
 H    -0.529363    -0.864484    -3.385561
 H     0.537125    -0.619239    -2.016919
Co    -0.004084    -1.246793    -0.561306
 O    -1.430450     1.653696    -1.052510
 C    -3.156265    -0.436146    -1.157332
 C    -2.191990     0.559952     1.386817
 O     1.849456    -0.437418     1.934183
 C     3.318549    -1.099045    -0.349328
 C     2.088857     1.436212     0.061753
 P     1.750888    -0.354741     0.279945
 P    -1.639194     0.168995    -0.324521
 C    -0.149431    -2.505229     0.574727
 O    -0.363598    -3.343777     1.347013
 C    -1.990122     2.903322    -0.652121
 H    -2.326704     2.823020     0.394971
 C    -3.178375     3.276197    -1.519180
 H    -3.972336     2.523259    -1.439932
 H    -2.873602     3.365030    -2.574258
 H    -3.587742     4.247653    -1.200542
 C    -0.878579     3.928844    -0.720095
 H    -0.045678     3.636280    -0.068197
 H    -0.493338     4.008349    -1.748407
 H    -1.241510     4.919644    -0.406190
 C    -3.512695     0.013646    -2.425623
 H    -2.954844     0.846674    -2.857305
 C    -3.829055    -1.552801    -0.623630
 O    -3.385612    -1.970648     0.576617
 C    -3.804383    -3.202375     1.090037
 H    -4.870608    -3.185322     1.378365
 H    -3.189022    -3.391110     1.978006
 H    -3.639592    -4.017672     0.364779
 C    -4.553045    -0.586284    -3.140772
 H    -4.821816    -0.214120    -4.131908
 C    -4.872428    -2.156278    -1.328123
 H    -5.401353    -3.012686    -0.908013
 C    -5.234541    -1.662857    -2.584389
 H    -6.050410    -2.141360    -3.131819
 C    -1.280852     0.312764     2.414635
 H    -0.289755    -0.067676     2.162410
 C    -3.483436     1.013673     1.734161
 O    -4.335058     1.260078     0.720457
 C    -5.676157     1.549429     0.986203
 H    -6.153728     0.751779     1.581123
 H    -6.177417     1.614767     0.011950
 H    -5.794720     2.511173     1.516264
 C    -1.613160     0.516196     3.753780
 H    -0.875446     0.316373     4.533811
 C    -3.828985     1.201021     3.076251
 H    -4.827632     1.545061     3.346493
 C    -2.891043     0.954836     4.078823
 H    -3.174472     1.109094     5.123224
 C     2.865212    -1.076614     2.705423
 H     3.846786    -0.839625     2.263705
 C     2.658912    -2.578647     2.719361
 H     2.718403    -2.994283     1.703684
 H     1.669209    -2.829206     3.128291
 H     3.432394    -3.065550     3.332828
 C     2.796229    -0.463865     4.089713
 H     2.963951     0.621942     4.043531
 H     1.806914    -0.644942     4.537890
 H     3.560333    -0.905921     4.746330
 C     3.191426    -2.271531    -1.095677
 H     2.186004    -2.697912    -1.177278
 C     4.598741    -0.521309    -0.215761
 O     4.693128     0.571594     0.563604
 C     5.856723     1.348452     0.549481
 H     6.713010     0.819196     1.003367
 H     5.633871     2.245811     1.140623
 H     6.125170     1.654411    -0.476148
 C     4.287539    -2.867287    -1.717130
 H     4.161998    -3.786575    -2.292653
 C     5.699525    -1.099763    -0.856614
 H     6.689599    -0.651932    -0.764821
 C     5.537479    -2.267360    -1.602137
 H     6.408394    -2.711103    -2.091423
 C     2.153549     2.309073     1.144097
 H     1.985268     1.905111     2.143839
 C     2.289776     1.943381    -1.233739
 O     2.202625     1.040557    -2.233836
 C     2.323355     1.462734    -3.561548
 H     1.555732     2.212505    -3.820286
 H     2.179011     0.572095    -4.186096
 H     3.323238     1.883650    -3.766865
 C     2.450566     3.660905     0.961465
 H     2.500088     4.331785     1.821841
 C     2.595852     3.292745    -1.425725
 H     2.765371     3.687909    -2.427661
 C     2.682099     4.143868    -0.322887
 H     2.919268     5.198850    -0.480353
