  90
scf done:    -3803.476981
 C    -0.844641    -0.027351    -3.353482
 H    -0.706814    -0.779480    -4.140235
 H    -1.886552     0.313395    -3.333107
 C     0.171921     1.061951    -3.346113
 H     0.943538     0.988865    -4.126171
 H    -0.241809     2.081401    -3.336180
 H     0.819660     1.044660    -2.372671
Co     0.037379    -0.340290    -1.644175
 C    -1.551585     1.955700     0.358846
 C    -3.332075     0.238719    -1.092943
 C    -1.982429    -0.842482     1.046681
 C     1.562857    -1.384743     1.252424
 C     3.294724    -0.701610    -0.905892
 C     2.063454     1.382257     0.569801
 P     1.661596    -0.248996    -0.182461
 P    -1.630658     0.273322    -0.377279
 C     0.235311    -2.000488    -2.000232
 O     0.272728    -3.141660    -2.204576
 C    -1.112980     2.208825     1.664170
 C    -1.767642     3.051880    -0.492415
 C    -1.171248     4.592703     1.271019
 C    -1.589274     4.355766    -0.039334
 C    -0.926123     3.513856     2.116516
 H    -0.916732     1.376212     2.341208
 H    -0.579853     3.684615     3.138639
 H    -1.029191     5.615935     1.627113
 H    -1.777086     5.193783    -0.715384
 H    -2.089221     2.879055    -1.523679
 C    -3.651403    -0.851851    -1.913103
 H    -2.871931    -1.577289    -2.161741
 C    -4.342546     1.150158    -0.777209
 H    -4.131513     1.999537    -0.123830
 C    -4.940316    -1.018359    -2.404401
 H    -5.165006    -1.880746    -3.038688
 C    -5.631400     0.983321    -1.282317
 H    -6.406167     1.710501    -1.022583
 C    -5.954771    -0.099049    -2.105248
 C    -7.335586    -0.268385    -2.667766
 H    -8.064403     0.370492    -2.149161
 H    -7.361902    -0.001653    -3.737453
 H    -7.676358    -1.311848    -2.587460
 C    -2.763321    -0.461424     2.143270
 H    -3.158988     0.554751     2.209078
 C    -1.554836    -2.171444     0.964422
 H    -0.963428    -2.493553     0.107212
 C    -3.055018    -1.372031     3.155506
 H    -3.655311    -1.049602     4.011196
 C    -1.873208    -3.083282     1.963748
 H    -1.521790    -4.114588     1.875306
 C    -2.608818    -2.696765     3.088858
 C    -2.886041    -3.672508     4.193715
 H    -3.651362    -3.296344     4.887254
 H    -3.227001    -4.641400     3.798311
 H    -1.971444    -3.867918     4.778863
 C     1.917809    -2.728272     1.075339
 C     1.028201    -0.982694     2.481880
 C     1.247380    -3.226821     3.343488
 C     0.877612    -1.895413     3.522467
 C     1.761524    -3.641543     2.115301
 H     2.317336    -3.062569     0.114712
 H     2.045089    -4.685719     1.963024
 H     1.127843    -3.944428     4.158932
 H     0.455754    -1.563946     4.473999
 H     0.726801     0.055133     2.629539
 C     3.407027    -0.849864    -2.288165
 H     2.508374    -0.742509    -2.900712
 C     4.441554    -0.869361    -0.117821
 H     4.379056    -0.771531     0.968314
 C     4.636711    -1.149773    -2.873662
 H     4.701673    -1.262872    -3.959355
 C     5.662144    -1.174682    -0.704672
 H     6.544499    -1.307428    -0.071856
 C     5.783915    -1.317799    -2.095496
 C     7.109955    -1.648599    -2.714587
 H     7.490773    -2.614329    -2.345490
 H     7.040266    -1.709834    -3.809456
 H     7.866245    -0.887585    -2.464648
 C     2.797531     1.534245     1.751835
 H     3.125630     0.657217     2.313406
 C     1.667557     2.537578    -0.112549
 H     1.070793     2.447854    -1.020759
 C     3.106243     2.802102     2.238465
 H     3.671086     2.895078     3.170371
 C     1.996113     3.799876     0.364477
 H     1.664859     4.682400    -0.188566
 C     2.710501     3.957631     1.556845
 C     3.006848     5.325725     2.095031
 H     3.429341     5.980142     1.317296
 H     2.084298     5.809723     2.456905
 H     3.716043     5.288447     2.933740
