  90
scf done:    -3803.479675
 C    -0.708950     1.929052    -2.677058
 H    -0.476651     1.844227    -3.745517
 H    -1.779109     2.134443    -2.546653
 C     0.215777     2.797984    -1.900310
 H     1.032330     3.254747    -2.475256
 H    -0.277039     3.570706    -1.291350
 H     0.792408     2.210568    -1.068056
Co     0.150081     0.639181    -1.497176
 C    -1.105168     1.287907     1.635766
 C    -3.090619     1.316007    -0.385575
 C    -1.990691    -1.202414     0.490696
 C     1.595864    -1.817675     0.437705
 C     3.222168    -0.734678    -1.609039
 C     2.738210     0.801230     0.819095
 P     1.840730    -0.225919    -0.445394
 P    -1.456391     0.515854     0.002407
 C     0.212741    -0.481942    -2.768700
 O     0.169543    -1.281820    -3.611547
 C    -0.330325     0.605096     2.586984
 C    -1.491488     2.604169     1.924376
 C    -0.367259     2.518432     4.065349
 C    -1.127207     3.212161     3.125897
 C     0.029510     1.208975     3.788864
 H    -0.005693    -0.420509     2.393241
 H     0.624172     0.650700     4.516382
 H    -0.084945     2.993541     5.007420
 H    -1.444908     4.237975     3.328710
 H    -2.086467     3.172565     1.206895
 H    -2.859180     2.326820    -0.765398
 H    -3.643695     1.443652     0.557080
 C    -3.960564     0.584259    -1.374190
 C    -5.351146     0.619752    -1.211349
 H    -5.775841     1.165984    -0.364820
 C    -3.436427    -0.144397    -2.448437
 H    -2.354925    -0.180779    -2.590552
 C    -6.194530    -0.054864    -2.089126
 H    -7.276082    -0.017875    -1.936796
 C    -4.278734    -0.828522    -3.323914
 H    -3.843706    -1.397058    -4.149578
 C    -5.660505    -0.788238    -3.148677
 H    -6.319850    -1.325731    -3.834547
 H    -1.157197    -1.625785     1.069837
 H    -2.012372    -1.766377    -0.452300
 C    -3.298346    -1.348102     1.212522
 C    -4.391821    -1.932045     0.560696
 H    -4.280867    -2.266204    -0.474168
 C    -3.471465    -0.913170     2.534663
 H    -2.634624    -0.462151     3.070304
 C    -5.620193    -2.073297     1.201768
 H    -6.457506    -2.527623     0.666660
 C    -4.700873    -1.048414     3.175508
 H    -4.812363    -0.701431     4.205874
 C    -5.782041    -1.627694     2.511800
 H    -6.745453    -1.734419     3.016287
 C     0.849027    -2.805399    -0.221317
 C     2.137549    -2.110102     1.694317
 C     1.182875    -4.329922     1.621931
 C     1.923696    -3.355044     2.285932
 C     0.651934    -4.053969     0.361556
 H     0.418328    -2.593093    -1.203001
 H     0.069094    -4.811977    -0.166974
 H     1.019009    -5.305607     2.085307
 H     2.351014    -3.566190     3.269124
 H     2.745196    -1.373043     2.221611
 H     3.508452     0.183543    -2.143907
 H     2.725276    -1.379806    -2.349301
 C     4.394874    -1.421322    -0.983539
 C     4.366568    -2.803419    -0.746207
 H     3.493866    -3.382029    -1.057268
 C     5.533395    -0.708820    -0.582744
 H     5.595146     0.365068    -0.775460
 C     5.429478    -3.445362    -0.117465
 H     5.381625    -4.523050     0.056277
 C     6.599455    -1.348374     0.047718
 H     7.476832    -0.769887     0.347020
 C     6.549323    -2.719923     0.287707
 H     7.383935    -3.223609     0.781024
 H     3.735807     0.360621     0.977597
 H     2.170326     0.696569     1.753695
 C     2.823541     2.255475     0.461880
 C     1.999286     3.179634     1.115198
 H     1.322831     2.832664     1.898025
 C     3.681151     2.726425    -0.540626
 H     4.337013     2.030166    -1.066414
 C     2.024284     4.529652     0.773622
 H     1.368208     5.228807     1.297970
 C     3.708305     4.076099    -0.884792
 H     4.384457     4.420005    -1.671236
 C     2.876633     4.984190    -0.230866
 H     2.895771     6.042173    -0.502584
