  82
scf done:    -3423.104415
 C     1.709042     0.476629     2.622569
 H     1.466137     0.675459     3.673435
 H     2.451048    -0.331853     2.561246
 C     2.061521     1.682126     1.820226
 H     1.981150     2.638275     2.355792
 H     3.035282     1.616389     1.311079
 H     1.343930     1.816582     0.911173
Co     0.232569     0.539164     1.343934
 C     2.813505    -0.957818    -0.167465
 C     1.263402    -2.693803     1.546589
 C     0.386694    -2.140414    -1.173624
 C    -2.614034     0.491032    -0.572213
 C    -2.228660     2.778663     1.092430
 C    -0.670913     2.452957    -1.484291
 P    -1.252280     1.549526     0.054263
 P     1.061844    -1.256802     0.345664
 C    -0.868090     0.387428     2.626844
 O    -1.597283     0.220390     3.519144
 C     3.944490    -1.612575     0.346537
 H     3.835956    -2.425496     1.065392
 C     3.047665     0.097888    -1.057011
 H     2.197680     0.668632    -1.436367
 C     5.230949    -1.247663    -0.028889
 H     6.104649    -1.758479     0.380481
 C     4.328349     0.468900    -1.460690
 H     4.447289     1.296663    -2.160422
 C     5.438357    -0.209409    -0.943972
 O     6.719098     0.072569    -1.255724
 C     6.979440     1.109777    -2.157958
 H     6.610998     2.082136    -1.785163
 H     8.069756     1.164485    -2.270061
 H     6.529007     0.917276    -3.148003
 H     2.094556    -2.342343     2.179981
 C     0.065071    -2.865051     2.473686
 H     0.270164    -3.668399     3.200161
 H    -0.147601    -1.945149     3.029691
 H    -0.850137    -3.138911     1.928439
 C     1.671443    -4.023742     0.918333
 H     2.502625    -3.928324     0.204850
 H     1.986746    -4.728385     1.705345
 H     0.831205    -4.494956     0.386724
 H     1.075301    -2.979574    -1.364335
 C    -1.006396    -2.692694    -0.889838
 H    -1.435861    -3.128377    -1.806212
 H    -0.995217    -3.479851    -0.124448
 H    -1.686676    -1.901989    -0.546687
 C     0.380460    -1.256614    -2.411225
 H     1.394538    -0.991370    -2.739088
 H    -0.115069    -1.780528    -3.244429
 H    -0.179738    -0.329111    -2.228608
 C    -2.889928     0.251854    -1.926586
 H    -2.311390     0.745903    -2.708031
 C    -3.389272    -0.191467     0.374617
 H    -3.190962    -0.062044     1.441012
 C    -3.889851    -0.628208    -2.316960
 H    -4.095787    -0.818081    -3.371970
 C    -4.402556    -1.069695    -0.001006
 H    -4.974412    -1.579315     0.774628
 C    -4.658438    -1.298891    -1.358428
 O    -5.604060    -2.135933    -1.825490
 C    -6.389040    -2.845769    -0.908341
 H    -6.975896    -2.170998    -0.260475
 H    -7.080611    -3.461988    -1.496630
 H    -5.777126    -3.506789    -0.269522
 H    -2.512629     2.121141     1.930922
 C    -1.310407     3.848473     1.669262
 H    -1.818814     4.393744     2.480107
 H    -0.398856     3.392628     2.084103
 H    -1.019332     4.590382     0.909105
 C    -3.516795     3.357432     0.520629
 H    -4.126056     2.593047     0.016513
 H    -4.122523     3.775647     1.341190
 H    -3.332842     4.173239    -0.190625
 H    -0.452471     1.614176    -2.167946
 C    -1.687195     3.370904    -2.157453
 H    -1.346952     3.620909    -3.175795
 H    -2.688561     2.927416    -2.235578
 H    -1.782069     4.318814    -1.608388
 C     0.644771     3.195759    -1.269868
 H     1.444181     2.533645    -0.914421
 H     0.977808     3.642087    -2.220665
 H     0.541203     4.013116    -0.541497
