  94
scf done:    -4104.131739
 C    -0.735222    -1.624641    -2.976713
 H    -0.642790    -2.674573    -3.281843
 H    -1.740547    -1.250145    -3.203167
 C     0.377032    -0.742784    -3.429737
 H     1.163535    -1.241122    -4.014946
 H     0.059445     0.172718    -3.950930
 H     0.988803    -0.318117    -2.528362
Co     0.058821    -1.106706    -1.274215
 C    -1.378046     1.978859    -0.805669
 C    -3.258193    -0.117183    -1.322570
 C    -2.065515    -0.047292     1.164677
 C     1.397370    -0.623971     1.860076
 C     3.234874    -1.292632    -0.209971
 C     2.189480     1.347579    -0.094089
 P     1.648587    -0.402141     0.058105
 P    -1.586532     0.164448    -0.598862
 C     0.110180    -2.731037    -0.745284
 O     0.044946    -3.821036    -0.352805
 C    -0.944200     2.826412     0.220932
 C    -1.481133     2.507410    -2.102930
 C    -0.772585     4.681108    -1.319293
 C    -1.190260     3.845016    -2.355673
 C    -0.646188     4.163997    -0.032686
 H    -0.837919     2.437308     1.234532
 H    -0.303833     4.803880     0.784153
 H    -0.534598     5.728576    -1.517963
 H    -1.287768     4.237281    -3.371161
 H    -1.801977     1.860692    -2.924943
 C    -4.207891     0.890409    -1.543221
 H    -3.946189     1.936863    -1.370874
 C    -3.644416    -1.443030    -1.536301
 H    -2.918730    -2.242050    -1.361327
 C    -5.488907     0.582221    -1.977907
 H    -6.231026     1.362888    -2.156251
 C    -4.930214    -1.769046    -1.962447
 H    -5.189777    -2.816800    -2.115525
 C    -5.862861    -0.751085    -2.192019
 O    -7.127023    -0.957094    -2.613586
 C    -7.557412    -2.270246    -2.833785
 H    -7.509651    -2.879024    -1.913466
 H    -8.602332    -2.208582    -3.163809
 H    -6.964757    -2.771644    -3.619506
 C    -1.755218    -1.259585     1.797099
 H    -1.168884    -2.008063     1.263608
 C    -2.841539     0.879749     1.864112
 H    -3.145829     1.812560     1.383481
 C    -2.179453    -1.522368     3.088856
 H    -1.931074    -2.461893     3.584484
 C    -3.252577     0.641424     3.175078
 H    -3.846579     1.395834     3.691742
 C    -2.914054    -0.565349     3.798787
 O    -3.251067    -0.887886     5.064704
 C    -3.997759     0.025019     5.816242
 H    -4.980541     0.231949     5.356543
 H    -4.157575    -0.432072     6.801249
 H    -3.463651     0.982867     5.950753
 C     1.608848    -1.889435     2.422333
 C     0.884030     0.397586     2.667618
 C     0.829867    -1.091682     4.566983
 C     0.607277     0.167030     4.012470
 C     1.328598    -2.119268     3.767306
 H     1.992185    -2.702127     1.800286
 H     1.498536    -3.111693     4.191726
 H     0.601870    -1.275562     5.619421
 H     0.201260     0.974258     4.626401
 H     0.698673     1.384120     2.240553
 C     4.339375    -1.142117     0.644699
 H     4.262273    -0.511545     1.533247
 C     3.368845    -2.122708    -1.321229
 H     2.503619    -2.260793    -1.974632
 C     5.530589    -1.798772     0.390374
 H     6.391946    -1.694707     1.052886
 C     4.564953    -2.786651    -1.596382
 H     4.627518    -3.429797    -2.474357
 C     5.655902    -2.626669    -0.737381
 O     6.851190    -3.223629    -0.903947
 C     7.035610    -4.068007    -2.005516
 H     6.905031    -3.530450    -2.961301
 H     8.065625    -4.441939    -1.946763
 H     6.342127    -4.927132    -1.984877
 C     1.895358     2.039443    -1.277798
 H     1.281042     1.560678    -2.040787
 C     2.942936     2.011571     0.878269
 H     3.189541     1.512054     1.817520
 C     2.342001     3.332424    -1.489235
 H     2.101291     3.870952    -2.406687
 C     3.383069     3.320979     0.690971
 H     3.959955     3.804985     1.479383
 C     3.084023     3.990943    -0.501341
 O     3.455449     5.256449    -0.776444
 C     4.201886     5.962985     0.173429
 H     5.168231     5.472281     0.385503
 H     4.395052     6.955920    -0.252125
 H     3.650753     6.083539     1.123118
