 106
scf done:    -4111.525742
 C     0.657205    -2.965359     1.436277
 H     0.903041    -3.939863     1.000067
 H     1.455647    -2.651546     2.120277
 C    -0.729546    -2.825611     1.964341
 H    -1.381163    -3.692796     1.792574
 H    -0.791089    -2.507403     3.015194
 H    -1.321986    -1.964919     1.436470
Co    -0.087971    -1.608433     0.242285
 C     1.134667     1.018673     2.180109
 O     2.878477    -0.686865     1.171710
 O     1.646420     0.873138    -0.495896
 C    -1.036414     0.771423    -2.108032
 O    -2.894121    -0.861268    -1.121022
 O    -1.905646     0.910958     0.509581
 P    -1.428826    -0.230329    -0.620533
 P     1.336077    -0.173497     0.786072
 C     0.102034    -2.661380    -1.117365
 O     0.326226    -3.355752    -2.013101
 H     0.586796     1.847507     1.693092
 C     2.407214     1.575832     2.817564
 H     3.064241     2.023043     2.058835
 H     2.972694     0.740088     3.261569
 C     2.065594     2.604026     3.891753
 H     2.991303     2.976542     4.359850
 H     1.587792     3.478500     3.413303
 C     1.127608     2.030395     4.947507
 H     0.864943     2.800601     5.690946
 H     1.653668     1.230899     5.500407
 C    -0.131888     1.451583     4.312978
 H    -0.719447     2.267303     3.853490
 H    -0.779683     0.998410     5.081038
 C     0.199111     0.424746     3.236398
 H     0.685865    -0.453758     3.698801
 H    -0.720417     0.066010     2.750744
 C     3.514082    -1.700478     0.512508
 C     3.360288    -1.904615    -0.857625
 H     2.712487    -1.240688    -1.431543
 C     4.353586    -2.526927     1.261534
 H     4.459650    -2.342831     2.332069
 C     4.014268    -2.963702    -1.497908
 C     3.780874    -3.199277    -2.961243
 H     3.988317    -2.291884    -3.550036
 H     4.414163    -4.009929    -3.347518
 H     2.727507    -3.468494    -3.139110
 C     5.022008    -3.566085     0.624388
 H     5.680248    -4.218460     1.203444
 C     4.849526    -3.790824    -0.742231
 H     5.369086    -4.620399    -1.228256
 C     2.499470     1.941024    -0.484184
 C     3.879199     1.748552    -0.537971
 H     4.272039     0.730780    -0.570369
 C     1.963288     3.230246    -0.461780
 H     0.879770     3.359825    -0.444930
 C     4.749183     2.844007    -0.534675
 C     6.232664     2.623944    -0.600679
 H     6.538242     2.311286    -1.612644
 H     6.788181     3.539109    -0.352647
 H     6.549703     1.829434     0.091308
 C     2.825599     4.322563    -0.460425
 H     2.415131     5.334951    -0.436297
 C     4.206410     4.133323    -0.487312
 H     4.874331     4.998373    -0.478503
 H    -0.473350     1.619974    -1.678886
 C    -2.229066     1.306365    -2.904502
 H    -2.907713     1.883458    -2.262781
 H    -2.810533     0.451176    -3.286322
 C    -1.750596     2.174535    -4.065012
 H    -2.619312     2.533668    -4.640485
 H    -1.254635     3.074643    -3.658453
 C    -0.778754     1.430080    -4.972165
 H    -0.419414     2.091328    -5.777388
 H    -1.311607     0.597457    -5.466279
 C     0.394043     0.869408    -4.177067
 H     0.997404     1.702157    -3.772427
 H     1.064408     0.288607    -4.831071
 C    -0.075829    -0.000833    -3.018653
 H    -0.586808    -0.899084    -3.407739
 H     0.781713    -0.350571    -2.429821
 C    -3.438111    -1.922926    -0.445426
 C    -3.890015    -1.771661     0.864743
 H    -3.790669    -0.800166     1.354244
 C    -3.527105    -3.154367    -1.092069
 H    -3.147215    -3.248762    -2.110454
 C    -4.438656    -2.857104     1.557726
 C    -4.878147    -2.693935     2.983744
 H    -5.468141    -1.775191     3.120592
 H    -5.486131    -3.545563     3.319226
 H    -4.006530    -2.621417     3.655275
 C    -4.081616    -4.232928    -0.410512
 H    -4.155455    -5.203600    -0.906520
 C    -4.532866    -4.088501     0.901783
 H    -4.961679    -4.946064     1.426442
 C    -2.692275     2.014951     0.324168
 C    -4.048093     1.897961     0.017568
 H    -4.477607     0.905668    -0.127677
 C    -2.114400     3.271883     0.507557
 H    -1.058276     3.338150     0.774214
 C    -4.842121     3.039346    -0.137078
 C    -6.289435     2.901823    -0.510918
 H    -6.395666     2.670429    -1.583675
 H    -6.771737     2.083857     0.044517
 H    -6.847395     3.827918    -0.314247
 C    -2.902624     4.409551     0.360684
 H    -2.457236     5.396884     0.504436
 C    -4.253526     4.297181     0.037256
 H    -4.862917     5.197287    -0.075833
