  78
scf done:    -5484.218863
 C    -0.789856    -0.054820    -3.399704
 H    -0.686526    -0.833589    -4.165234
 H    -1.809876     0.347088    -3.403745
 C     0.287575     0.973479    -3.404874
 H     1.060231     0.839174    -4.175532
 H    -0.066424     2.014880    -3.419933
 H     0.926103     0.937243    -2.425480
Co     0.050635    -0.374636    -1.669740
 C    -1.442329     2.050581     0.257082
 C    -3.293233     0.391585    -1.177210
 C    -2.024096    -0.709744     0.995962
 C     1.455046    -1.426925     1.288885
 C     3.268274    -0.898698    -0.846210
 C     2.118007     1.290393     0.536639
 P     1.644629    -0.341586    -0.174853
 P    -1.598020     0.359228    -0.445340
 C     0.163778    -2.051737    -1.988865
 O     0.143277    -3.196785    -2.167051
 C    -0.996558     2.309009     1.559316
 C    -1.594032     3.137120    -0.620109
 C    -0.913027     4.682052     1.109811
 C    -1.342152     4.439014    -0.195710
 C    -0.735860     3.611235     1.982058
 H    -0.847831     1.483593     2.256746
 H    -0.380343     3.787425     2.999922
 H    -0.701269     5.701182     1.441005
 H    -1.478348     5.270365    -0.891913
 H    -1.920391     2.960756    -1.649426
 C    -4.259734     1.357582    -0.880356
 H    -4.010814     2.206008    -0.239374
 C    -3.654189    -0.693894    -1.985994
 H    -2.907613    -1.457415    -2.220556
 C    -5.552481     1.255590    -1.389143
 H    -6.304895     2.011999    -1.159964
 C    -4.943448    -0.814057    -2.492234
 H    -5.221949    -1.661275    -3.120869
 C    -5.886991     0.168842    -2.194171
Cl    -7.492152     0.036228    -2.829786
 C    -2.768666    -0.260853     2.093573
 H    -3.103991     0.777374     2.144273
 C    -1.674841    -2.062056     0.930581
 H    -1.113635    -2.432926     0.072863
 C    -3.093542    -1.123140     3.136408
 H    -3.653582    -0.768791     4.003361
 C    -2.019379    -2.942476     1.949892
 H    -1.732474    -3.993142     1.898577
 C    -2.701999    -2.459545     3.062427
Cl    -3.051859    -3.529070     4.379699
 C     1.728235    -2.794163     1.151382
 C     0.920713    -0.961789     2.496588
 C     0.966732    -3.195686     3.410584
 C     0.683530    -1.838707     3.551699
 C     1.486962    -3.670533     2.207137
 H     2.127452    -3.178027     0.209210
 H     1.704755    -4.734179     2.084939
 H     0.765585    -3.884771     4.233937
 H     0.257166    -1.461544     4.483844
 H     0.683315     0.096146     2.615416
 C     4.380684    -1.115006    -0.022907
 H     4.295610    -0.996470     1.059520
 C     3.403653    -1.078748    -2.224298
 H     2.526917    -0.933830    -2.860493
 C     5.602182    -1.498268    -0.562852
 H     6.469071    -1.672783     0.076360
 C     4.622996    -1.456955    -2.781725
 H     4.727922    -1.599814    -3.858311
 C     5.716485    -1.663918    -1.944896
Cl     7.236151    -2.140024    -2.621331
 C     2.822333     1.441484     1.738284
 H     3.096296     0.567004     2.331643
 C     1.791169     2.439276    -0.190546
 H     1.217244     2.348159    -1.112947
 C     3.164534     2.703704     2.213969
 H     3.696540     2.819841     3.159554
 C     2.147583     3.705492     0.257261
 H     1.876080     4.595092    -0.311333
 C     2.818192     3.831260     1.470494
Cl     3.197489     5.407817     2.075939
