  50
scf done:    -3078.362675
 C     4.023370    -0.041267    -0.743395
 H     4.489629    -0.678213    -1.504568
 H     4.292411     1.008260    -0.933008
 C     4.242637    -0.486176     0.666636
 H     4.808467    -1.421499     0.776103
 H     4.676891     0.280550     1.326444
 H     3.232647    -0.712467     1.212081
Co     2.212325    -0.492313    -0.191396
 C    -0.219975     1.881210    -0.163666
 C     2.282718     2.773113     0.924126
 C     1.956446     2.416595    -1.861414
 C    -1.068206    -1.412622     0.543426
 C     0.992927    -3.003244     1.652318
 C     0.509777    -0.423757     2.733409
 P     0.668136    -1.274973     1.114932
 P     1.584128     1.561592    -0.274317
 C     1.964387    -1.539936    -1.520686
 O     1.759474    -2.149334    -2.487702
 C    -1.036768     1.317556    -1.157030
 H    -0.583582     0.724846    -1.956035
 C    -0.831001     2.595609     0.871960
 H    -0.227853     3.057391     1.656768
 C    -2.415881     1.475775    -1.133002
 H    -3.057218     1.036828    -1.898867
 C    -2.218510     2.737466     0.927523
 H    -2.706598     3.283019     1.737332
 C    -2.991132     2.173795    -0.076960
 F    -4.317715     2.286487    -0.019705
 H     2.049760     2.461652     1.952792
 H     3.377711     2.752235     0.814279
 H     1.929895     3.803256     0.760370
 H     1.572806     3.447828    -1.869659
 H     3.043915     2.422178    -2.019576
 H     1.503677     1.848996    -2.685996
 C    -2.157409    -0.930363     1.277108
 H    -2.004796    -0.424584     2.231359
 C    -1.312614    -2.033698    -0.690638
 H    -0.479547    -2.399538    -1.295043
 C    -3.459548    -1.059278     0.798710
 H    -4.314010    -0.664549     1.351024
 C    -2.607762    -2.178932    -1.175122
 H    -2.807913    -2.661069    -2.133705
 C    -3.667327    -1.684901    -0.422311
 F    -4.907599    -1.804168    -0.890757
 H     0.991231    -3.651490     0.764718
 H     1.994046    -3.054222     2.106044
 H     0.238688    -3.360935     2.369441
 H     0.151897     0.603390     2.574192
 H    -0.165801    -0.944081     3.428912
 H     1.512164    -0.372492     3.182882
