  84
scf done:    -4121.671791
 C    -0.572092    -0.997785    -3.077848
 H    -0.424494    -1.981554    -3.539658
 H    -1.578664    -0.619619    -3.301153
 C     0.531646    -0.027693    -3.308418
 H     1.446752    -0.447256    -3.746075
 H     0.238508     0.879713    -3.858992
 H     0.885874     0.459983    -2.303415
Co     0.088537    -0.719604    -1.268233
 C    -1.840345     1.918341     0.149094
 C    -3.315368    -0.105604    -1.245673
 C    -2.225340    -0.741071     1.196043
 C     2.162833    -1.281747     1.491489
 C     3.331827    -0.607544    -1.072918
 C     2.195146     1.432519     0.539433
 P     1.843061    -0.276956    -0.020071
 P    -1.718551     0.140680    -0.348998
 C     0.168011    -2.413475    -1.086631
 O     0.138494    -3.567761    -0.989428
 C    -1.852007     2.296681     1.498605
 H    -1.890011     1.528267     2.271440
 C    -1.784049     2.928950    -0.840393
 C    -1.734486     2.604741    -2.304202
 H    -2.742363     2.466462    -2.726534
 H    -1.192655     1.665180    -2.477662
 H    -1.240072     3.406349    -2.871075
 C    -1.816232     3.635138     1.880457
 H    -1.818805     3.896719     2.941071
 C    -1.767483     4.268586    -0.437065
 H    -1.731526     5.046352    -1.205573
 C    -1.781562     4.629254     0.907722
 H    -1.758116     5.683704     1.192742
 C    -4.337395     0.847407    -1.304761
 H    -4.195410     1.829581    -0.846847
 C    -3.540299    -1.366874    -1.814624
 H    -2.755647    -2.125768    -1.761834
 C    -5.549759     0.561976    -1.930978
 H    -6.353126     1.299003    -1.985431
 C    -4.747570    -1.669827    -2.434403
 H    -4.933489    -2.649964    -2.877205
 C    -5.737632    -0.695074    -2.489978
 F    -6.893274    -0.974875    -3.089240
 C    -1.425289    -1.762398     1.710120
 H    -0.479827    -1.994916     1.222173
 C    -3.446847    -0.464062     1.829547
 H    -4.105156     0.311284     1.430695
 C    -1.807535    -2.482412     2.840138
 H    -1.178412    -3.276895     3.245170
 C    -3.842070    -1.166758     2.961237
 H    -4.788635    -0.959492     3.463687
 C    -3.011478    -2.170391     3.453875
 F    -3.389173    -2.847249     4.536101
 C     2.949457    -2.436479     1.378721
 H     3.429253    -2.671718     0.427569
 C     1.543230    -0.981919     2.725883
 C     0.683276     0.227221     2.948523
 H     0.205726     0.574322     2.024913
 H     1.274483     1.072827     3.334643
 H    -0.109225     0.004392     3.676559
 C     3.135053    -3.293432     2.458302
 H     3.750480    -4.188152     2.341791
 C     1.748334    -1.858170     3.799165
 H     1.265822    -1.632166     4.754146
 C     2.530989    -3.001525     3.678157
 H     2.664710    -3.665531     4.535451
 C     3.328178    -1.721253    -1.927447
 H     2.459754    -2.381683    -1.949438
 C     4.450101     0.235532    -1.091088
 H     4.478827     1.122610    -0.457397
 C     4.413454    -2.004069    -2.750585
 H     4.417484    -2.874169    -3.409525
 C     5.537520    -0.026040    -1.921229
 H     6.407917     0.632201    -1.943710
 C     5.507949    -1.147545    -2.738950
 F     6.543676    -1.403309    -3.532785
 C     3.137327     1.725000     1.535130
 H     3.681891     0.912740     2.024390
 C     1.499788     2.482862    -0.063702
 H     0.748145     2.256431    -0.821704
 C     3.377844     3.039816     1.920589
 H     4.103312     3.286934     2.697849
 C     1.728861     3.803844     0.309703
 H     1.175069     4.627797    -0.141812
 C     2.665618     4.062928     1.301066
 F     2.886094     5.320510     1.675019
