 104
scf done:    -3587.061955
 C     0.666675     3.395508    -1.045079
 H     0.602560     4.369892    -0.545406
 H     1.618051     3.318906    -1.586816
 C    -0.536432     3.034673    -1.854749
 H    -1.361953     3.759052    -1.811694
 H    -0.324270     2.792783    -2.907899
 H    -1.027545     2.041089    -1.484907
Co    -0.009657     1.853539    -0.070526
 C     0.973170    -0.925315    -1.792344
 C     3.022017     1.058948    -1.557772
 C     2.281322    -0.485012     0.741848
 C    -0.988858    -0.852030     1.772648
 C    -2.937589     1.220052     1.474948
 C    -2.349146    -0.508765    -0.765152
 P    -1.523080     0.435085     0.585052
 P     1.524440     0.424804    -0.672052
 C     0.112996     2.644777     1.432970
 O     0.286045     3.128756     2.475550
 C     0.829068    -2.260837    -1.400609
 H     1.187754    -2.589792    -0.424395
 C     0.481681    -0.563229    -3.057645
 H     0.557358     0.477012    -3.387885
 C     0.196011    -3.188858    -2.229321
 H     0.088135    -4.223066    -1.889086
 C    -0.135179    -1.492011    -3.885711
 H    -0.510085    -1.175954    -4.863701
 C    -0.305322    -2.824946    -3.481192
 C    -1.021420    -3.809436    -4.357796
 H    -2.098489    -3.579632    -4.409028
 H    -0.636683    -3.784784    -5.388940
 H    -0.917497    -4.836189    -3.979864
 H     2.660131     1.590216    -2.454722
 H     3.622600     0.207871    -1.913779
 C     3.831918     2.006533    -0.679963
 H     3.136272     2.653382    -0.119444
 H     4.382884     1.426169     0.081500
 C     4.827164     2.885495    -1.439479
 H     4.248325     3.467121    -2.182479
 C     5.491831     3.874494    -0.489559
 H     4.744615     4.491745     0.032726
 H     6.176313     4.550739    -1.025101
 H     6.080781     3.344674     0.278004
 C     5.867093     2.063937    -2.192923
 H     6.577087     2.713487    -2.728321
 H     5.406575     1.394493    -2.935066
 H     6.449898     1.438710    -1.494999
 H     1.463300    -1.064785     1.195304
 H     2.514243     0.295777     1.482325
 C     3.485631    -1.377028     0.465908
 H     3.354799    -1.909815    -0.490766
 H     4.391594    -0.758689     0.338352
 C     3.745423    -2.412674     1.564049
 H     2.835688    -3.039649     1.642096
 C     4.910027    -3.317560     1.181517
 H     4.735531    -3.810445     0.212172
 H     5.075274    -4.103477     1.935091
 H     5.844582    -2.738169     1.095861
 C     3.973611    -1.764141     2.924677
 H     4.189243    -2.522455     3.694041
 H     3.094940    -1.191588     3.257012
 H     4.833795    -1.074091     2.891322
 C    -0.452214    -0.434593     3.001325
 H    -0.436747     0.627724     3.258172
 C    -0.951090    -2.215944     1.467476
 H    -1.347670    -2.581426     0.519368
 C     0.108365    -1.350836     3.881868
 H     0.526523    -0.996364     4.828292
 C    -0.375561    -3.129390     2.351235
 H    -0.348407    -4.189337     2.082663
 C     0.171512    -2.716488     3.568572
 C     0.829200    -3.687916     4.502959
 H     0.659903    -4.727815     4.190597
 H     1.918188    -3.520388     4.536425
 H     0.453299    -3.573546     5.531221
 H    -2.518337     1.636565     2.405879
 H    -3.666732     0.446026     1.760439
 C    -3.557252     2.333898     0.644976
 H    -2.736713     2.989414     0.305205
 H    -4.013615     1.913371    -0.271165
 C    -4.606678     3.176180     1.371642
 H    -4.127299     3.580640     2.282897
 C    -5.028197     4.354867     0.502163
 H    -4.161980     4.972235     0.217710
 H    -5.749386     5.003444     1.023302
 H    -5.507864     4.004101    -0.427285
 C    -5.815915     2.352542     1.800352
 H    -6.563537     2.978989     2.311300
 H    -5.540534     1.539988     2.489367
 H    -6.307769     1.896472     0.924004
 H    -1.576016    -1.175113    -1.180111
 H    -2.536808     0.230101    -1.560094
 C    -3.617278    -1.282537    -0.428843
 H    -3.517441    -1.769032     0.556000
 H    -4.467106    -0.583442    -0.330713
 C    -3.970092    -2.354028    -1.464960
 H    -3.119471    -3.062209    -1.501857
 C    -5.209550    -3.127712    -1.033008
 H    -5.078657    -3.573019    -0.034305
 H    -5.442713    -3.941402    -1.737321
 H    -6.089718    -2.464660    -0.988348
 C    -4.141791    -1.771212    -2.863293
 H    -4.429647    -2.552468    -3.584251
 H    -3.214289    -1.306288    -3.229995
 H    -4.934174    -1.003492    -2.874513
