  56
scf done:    -2958.548762
 C     4.010602     0.693443    -0.472603
 H     4.805788     0.027573    -0.829010
 H     4.005306     1.607997    -1.082395
 C     4.005262     0.919900     1.006052
 H     4.787856     0.382401     1.559144
 H     4.015034     1.979873     1.303345
 H     3.011413     0.551329     1.503482
Co     2.339195    -0.153175     0.047820
 C    -0.613063     1.715120    -0.339484
 C     1.740614     3.204840    -0.637003
 C     1.070817     1.294584    -2.614965
 C    -0.769077    -1.488689     0.487944
 C     1.339238    -2.879454     1.761373
 C     0.446070    -0.446483     2.890103
 P     0.865154    -1.175311     1.258840
 P     1.149781     1.459680    -0.789015
 C     2.709066    -1.527521    -0.884089
 O     2.907556    -2.416612    -1.605304
 C    -1.677006     1.348834    -1.171164
 H    -1.483674     0.925780    -2.157981
 C    -0.922299     2.247308     0.918826
 H    -0.115346     2.550768     1.592818
 C    -2.995536     1.500522    -0.753258
 H    -3.805278     1.197571    -1.423285
 C    -2.242419     2.402484     1.331789
 H    -2.452171     2.826068     2.318388
 C    -3.306243     2.023502     0.505881
 C    -4.730400     2.134852     0.963563
 H    -5.114462     1.153163     1.289516
 H    -4.831871     2.826680     1.811830
 H    -5.388738     2.485629     0.154672
 H     1.719025     3.514244     0.417663
 H     2.780278     3.273353    -0.987923
 H     1.113589     3.892842    -1.222954
 H     0.497438     2.100264    -3.099358
 H     2.106645     1.299159    -2.983075
 H     0.637422     0.317942    -2.872142
 C    -0.790361    -1.945186    -0.837173
 H     0.149753    -2.091562    -1.375265
 C    -1.987578    -1.306454     1.146394
 H    -2.013970    -0.939451     2.173788
 C    -1.995609    -2.218855    -1.474652
 H    -1.985939    -2.581882    -2.506441
 C    -3.191376    -1.572700     0.498070
 H    -4.132792    -1.415754     1.032613
 C    -3.220198    -2.029747    -0.822298
 C    -4.520649    -2.267431    -1.531541
 H    -5.319985    -2.545250    -0.829345
 H    -4.851448    -1.356290    -2.058975
 H    -4.431778    -3.063904    -2.284546
 H     1.521374    -3.474765     0.855545
 H     2.279927    -2.832073     2.330192
 H     0.557090    -3.360950     2.367629
 H    -0.206145    -1.101296     3.487187
 H     1.386165    -0.290240     3.439180
 H    -0.042386     0.526651     2.749028
