  74
scf done:    -4113.171423
 C     3.317134     1.865928    -0.686691
 H     4.316337     1.854597    -0.234833
 H     3.403352     1.817708    -1.779485
 C     2.421601     2.950896    -0.184744
 H     2.845876     3.572544     0.615859
 H     2.010901     3.605144    -0.969598
 H     1.442665     2.523244     0.290427
Co     1.928263     0.841999     0.210817
 C    -0.760194     0.723744    -1.863932
 C     1.728141     0.336036    -3.220243
 C     0.682426    -1.762069    -1.553576
 C    -0.407359    -1.144211     1.692674
 C     0.899155     0.719291     3.420437
 C    -1.089754     1.679320     1.540874
 P     0.344447     0.526878     1.670368
 P     0.932702     0.065819    -1.569725
 C     3.063468    -0.139068     1.017016
 O     3.813757    -0.884983     1.497389
 C    -1.930573    -0.020869    -1.670728
 H    -1.876385    -1.095192    -1.492666
 C    -0.892822     2.103986    -2.088338
 H     0.001928     2.718030    -2.223906
 C    -3.184880     0.588406    -1.661059
 H    -4.089537     0.001618    -1.490976
 C    -2.135518     2.725645    -2.095869
 H    -2.225381     3.801096    -2.257610
 C    -3.280502     1.962651    -1.859334
Cl    -4.829811     2.735324    -1.788909
 H     1.030756     0.045244    -4.022700
 H     1.887742     1.423351    -3.320455
 C     3.059523    -0.396752    -3.351066
 H     2.876000    -1.482659    -3.405096
 H     3.649503    -0.240414    -2.433123
 C     3.857691     0.043876    -4.567797
 H     3.291460    -0.113852    -5.499867
 H     4.108195     1.115502    -4.510649
 H     4.802739    -0.513829    -4.652170
 H     1.659948    -2.176577    -1.256073
 H     0.023823    -1.968621    -0.696553
 C     0.161252    -2.455390    -2.806460
 H     0.901409    -2.367356    -3.618277
 H    -0.743321    -1.946218    -3.177857
 C    -0.143254    -3.925297    -2.553606
 H     0.756822    -4.464378    -2.217374
 H    -0.904845    -4.049998    -1.766806
 H    -0.512735    -4.425257    -3.461886
 C     0.435313    -2.240857     1.934130
 H     1.485706    -2.079853     2.189444
 C    -1.735387    -1.395040     1.330050
 H    -2.418918    -0.569667     1.129169
 C    -0.024581    -3.545491     1.799219
 H     0.640459    -4.393164     1.971058
 C    -2.207101    -2.697853     1.179543
 H    -3.239294    -2.887740     0.880152
 C    -1.343880    -3.767173     1.403061
Cl    -1.907974    -5.386434     1.163901
 H     0.056324     0.537678     4.107674
 H     1.636491    -0.082537     3.591749
 C     1.549556     2.074131     3.664146
 H     0.804481     2.876487     3.519442
 H     2.317170     2.225892     2.885931
 C     2.169638     2.196232     5.046473
 H     1.417024     2.058894     5.839406
 H     2.951728     1.435250     5.196461
 H     2.632753     3.183823     5.193073
 H    -0.645805     2.674833     1.371522
 H    -1.589216     1.435145     0.589471
 C    -2.094043     1.743962     2.684442
 H    -1.600091     2.136060     3.588869
 H    -2.436710     0.730334     2.950672
 C    -3.290108     2.618281     2.335471
 H    -2.974926     3.649492     2.109450
 H    -3.818349     2.241793     1.444623
 H    -4.013795     2.663963     3.163264
