  88
scf done:    -5863.588627
 C    -1.942602    -3.217058     0.473566
 H    -2.339014    -3.943771    -0.245343
 H    -1.289541    -3.727173     1.195441
 C    -2.953429    -2.299750     1.079669
 H    -3.986097    -2.464663     0.743484
 H    -2.911577    -2.248807     2.177265
 H    -2.784061    -1.179036     0.784769
Co    -1.405723    -1.482212    -0.256760
 C     0.149107    -1.845368     2.696847
 O     1.485069    -2.746822     0.644077
 O     1.249024    -0.186730     0.824766
 C    -0.029010     1.200392    -1.836216
 O    -2.621239     1.244422    -1.456392
 O    -1.207708     1.512690     0.666434
 P    -1.288207     0.563472    -0.706981
 P     0.317606    -1.574985     0.910159
 C    -1.668635    -2.010794    -1.886319
 O    -1.778311    -2.408770    -2.962961
 C    -0.512758    -0.839870     3.415633
 H    -0.844464     0.065076     2.896278
 C     0.551889    -3.008779     3.355660
 H     1.069707    -3.791616     2.797617
 C    -0.738022    -0.991154     4.777770
 H    -1.241525    -0.194079     5.332082
 C     0.309072    -3.154296     4.720686
 H     0.628891    -4.068180     5.228765
 C    -0.333318    -2.151805     5.454534
 C    -0.595204    -2.306194     6.923471
 H    -0.161486    -1.470185     7.494251
 H    -1.676724    -2.312677     7.133769
 H    -0.170594    -3.241081     7.314202
 C     1.985152    -2.884548    -0.626743
 C     3.252556    -2.378502    -0.915285
 H     3.840680    -1.919673    -0.119720
 C     1.224821    -3.495348    -1.623667
 H     0.248001    -3.906189    -1.371827
 C     3.743121    -2.440882    -2.215580
 H     4.727746    -2.037510    -2.456966
 C     1.705021    -3.545105    -2.929206
 H     1.102849    -3.987760    -3.723646
 C     2.955450    -3.001746    -3.220111
Cl     3.534653    -2.999520    -4.854904
 C     2.536169     0.047232     1.200552
 C     3.244445     0.972451     0.426466
 H     2.749842     1.423569    -0.435778
 C     3.151499    -0.565197     2.294097
 H     2.604285    -1.285234     2.900872
 C     4.561624     1.285199     0.740538
 H     5.120440     2.002927     0.137816
 C     4.474075    -0.256031     2.603903
 H     4.964821    -0.731964     3.454351
 C     5.175484     0.665753     1.829522
Cl     6.820910     1.045308     2.220395
 C     0.002249     2.523856    -2.300717
 H    -0.757469     3.239356    -1.984373
 C     0.934910     0.297046    -2.294634
 H     0.907505    -0.739024    -1.952968
 C     1.002956     2.929540    -3.174347
 H     1.021617     3.967053    -3.519277
 C     1.923517     0.709464    -3.183495
 H     2.657579    -0.017759    -3.538786
 C     1.980942     2.032755    -3.630799
 C     3.038596     2.482036    -4.594148
 H     2.601077     2.697999    -5.582450
 H     3.527018     3.406399    -4.249465
 H     3.811457     1.713455    -4.731711
 C    -3.865413     0.761814    -1.154389
 C    -4.587271     0.106251    -2.151118
 H    -4.134006    -0.016350    -3.136160
 C    -4.408625     0.912144     0.123430
 H    -3.828486     1.411207     0.901470
 C    -5.854927    -0.395625    -1.876273
 H    -6.427054    -0.914589    -2.646806
 C    -5.676022     0.407702     0.403106
 H    -6.110292     0.515921     1.398185
 C    -6.393216    -0.244903    -0.597917
Cl    -7.966892    -0.880666    -0.249277
 C    -0.889126     2.843190     0.699655
 C    -1.845880     3.814452     0.401198
 H    -2.852247     3.511719     0.108700
 C     0.402767     3.215095     1.068539
 H     1.129746     2.436809     1.300790
 C    -1.501553     5.162510     0.453618
 H    -2.236735     5.933468     0.217660
 C     0.749020     4.560912     1.123711
 H     1.758751     4.863092     1.405908
 C    -0.204162     5.529542     0.810113
Cl     0.225833     7.206941     0.868322
