  82
scf done:    -4542.278241
 C     0.875155    -2.077171    -2.996014
 H     0.719391    -2.043856    -4.080303
 H     1.946893    -2.034899    -2.768043
 C     0.120152    -3.143182    -2.275173
 H    -0.479758    -3.799574    -2.920477
 H     0.735117    -3.746801    -1.592156
 H    -0.687162    -2.716963    -1.541875
Co    -0.371432    -1.034147    -1.911102
 C     2.633435    -1.326082    -0.340224
 O     1.722029     1.165125    -1.095708
 O     0.623473    -0.031244     0.915692
 C    -2.045997     1.360843    -0.193353
 O    -3.452571    -0.654725    -1.358488
 O    -2.178114    -1.029966     0.831190
 P    -1.949497    -0.381320    -0.688507
 P     1.138118    -0.325819    -0.654428
 C    -0.892051    -0.202637    -3.330456
 O    -1.140198     0.416966    -4.270703
 C     2.504727    -2.364191     0.594379
 H     1.579771    -2.462392     1.168824
 C     3.795571    -1.259780    -1.120467
 H     3.909442    -0.486041    -1.881620
 C     3.529089    -3.284733     0.787994
 H     3.442326    -4.094788     1.514390
 C     4.829204    -2.173563    -0.934500
 H     5.745054    -2.126785    -1.526018
 C     4.685181    -3.169817     0.023474
 F     5.670344    -4.043019     0.204291
 C     2.961303     1.744069    -1.089110
 C     3.807224     1.750000     0.021435
 H     3.509055     1.257198     0.945783
 C     3.354266     2.377827    -2.270529
 H     2.674139     2.357614    -3.124025
 C     5.044802     2.383991    -0.055789
 H     5.721667     2.399213     0.800113
 C     4.587821     3.016674    -2.348285
 H     4.912214     3.519330    -3.261143
 C     5.422388     3.010014    -1.236571
 F     6.606970     3.616659    -1.305808
 C     1.202693     0.801241     1.829482
 C     0.944615     2.172786     1.774156
 H     0.300841     2.559495     0.984326
 C     2.020706     0.279503     2.833418
 H     2.215209    -0.792912     2.865304
 C     1.519752     3.026047     2.709221
 H     1.339280     4.101988     2.681054
 C     2.597213     1.131844     3.773686
 H     3.243259     0.750913     4.566591
 C     2.343252     2.495882     3.696571
 F     2.897720     3.312264     4.590924
 C    -2.655998     1.764503     1.001719
 H    -3.069369     1.013974     1.676506
 C    -1.494307     2.324716    -1.045118
 H    -0.990027     2.019569    -1.963457
 C    -2.726797     3.111659     1.336137
 H    -3.195680     3.447812     2.262418
 C    -1.561885     3.677003    -0.720388
 H    -1.133690     4.442959    -1.368944
 C    -2.181270     4.050823     0.466631
 F    -2.244823     5.339283     0.785255
 C    -4.601036    -0.122595    -0.827387
 C    -5.257115    -0.762306     0.224363
 H    -4.847186    -1.687637     0.631331
 C    -5.109787     1.061752    -1.360847
 H    -4.576176     1.543280    -2.182001
 C    -6.423744    -0.211700     0.749485
 H    -6.958815    -0.690263     1.571584
 C    -6.275204     1.614943    -0.839920
 H    -6.693608     2.541254    -1.237241
 C    -6.916326     0.971756     0.212672
 F    -8.030392     1.500843     0.717178
 C    -1.783672    -2.295251     1.147468
 C    -2.210834    -3.400002     0.407021
 H    -2.876540    -3.252408    -0.446173
 C    -0.952059    -2.468595     2.254897
 H    -0.635170    -1.587156     2.813498
 C    -1.785628    -4.679430     0.760567
 H    -2.100502    -5.558594     0.195779
 C    -0.536052    -3.746112     2.617516
 H     0.110075    -3.910950     3.481936
 C    -0.950139    -4.836609     1.858971
 F    -0.540880    -6.057968     2.199181
