  88
scf done:    -4025.699483
 C     1.147781    -2.080004    -2.989985
 H     0.866531    -2.226126    -4.039015
 H     2.198411    -1.772183    -2.922820
 C     0.753933    -3.180065    -2.061054
 H     0.239993    -4.024953    -2.539447
 H     1.573721    -3.545351    -1.425435
 H    -0.020423    -2.838968    -1.252327
Co    -0.182992    -1.203456    -1.856360
 C     2.905194    -0.792170    -0.568609
 O     1.727586     1.328738    -1.780349
 O     0.827831     0.565811     0.547739
 C    -2.280226     0.943227    -0.258863
 O    -3.133632    -1.577509    -0.842777
 O    -1.558274    -1.123716     1.132469
 P    -1.717633    -0.764292    -0.491653
 P     1.284560    -0.039278    -0.931012
 C    -1.075169    -0.762641    -3.266401
 O    -1.600170    -0.404518    -4.228702
 C     2.971810    -1.727521     0.473612
 H     2.093754    -1.913943     1.097430
 C     4.026607    -0.601911    -1.378247
 H     3.972527     0.093709    -2.218137
 C     4.150932    -2.416834     0.723094
 H     4.186121    -3.133735     1.548450
 C     5.205516    -1.301618    -1.123470
 H     6.076483    -1.139432    -1.764470
 C     5.292312    -2.212781    -0.066698
 C     6.561881    -2.958757     0.220139
 H     7.331350    -2.754253    -0.537094
 H     6.972685    -2.676471     1.202973
 H     6.388429    -4.045983     0.244299
 C     2.131934     2.522446    -1.241590
 C     3.460675     2.927871    -1.369781
 H     4.170218     2.285740    -1.892278
 C     1.205944     3.342340    -0.593855
 H     0.169919     3.013383    -0.509884
 C     3.866033     4.142468    -0.819887
 H     4.908642     4.454617    -0.917876
 C     1.623525     4.548092    -0.039737
 H     0.897812     5.174148     0.484577
 C     2.954308     4.951504    -0.143834
 H     3.279243     5.896536     0.296672
 C     1.421958     1.211496     1.592756
 C     2.793520     1.434826     1.719157
 H     3.484087     1.095844     0.949425
 C     0.541185     1.665152     2.579112
 H    -0.525929     1.485400     2.437141
 C     3.269956     2.123127     2.833518
 H     4.343563     2.306643     2.920144
 C     1.032489     2.346330     3.688046
 H     0.336104     2.702925     4.451083
 C     2.401237     2.580206     3.822207
 H     2.787455     3.120085     4.689351
 C    -2.067661     1.861309    -1.289252
 H    -1.540486     1.552395    -2.194192
 C    -2.932001     1.366155     0.908063
 H    -3.099428     0.656965     1.720281
 C    -2.505984     3.178062    -1.158946
 H    -2.325769     3.885032    -1.972961
 C    -3.358078     2.681741     1.030739
 H    -3.863570     2.997775     1.947628
 C    -3.153900     3.612023     0.000761
 C    -3.618412     5.030179     0.151552
 H    -3.159794     5.505885     1.032883
 H    -3.365524     5.634402    -0.730466
 H    -4.710007     5.075918     0.292912
 C    -4.323613    -1.311735    -0.214882
 C    -5.228295    -0.439860    -0.820611
 H    -4.957814     0.020876    -1.772383
 C    -4.627509    -1.917731     1.004392
 H    -3.906570    -2.598360     1.460241
 C    -6.442745    -0.168504    -0.196356
 H    -7.150345     0.516369    -0.669613
 C    -5.845729    -1.638062     1.621058
 H    -6.085613    -2.111464     2.576228
 C    -6.754241    -0.762804     1.026660
 H    -7.707141    -0.546795     1.514891
 C    -0.876677    -2.211216     1.585174
 C    -1.060631    -3.480897     1.029399
 H    -1.773640    -3.614318     0.213012
 C     0.006345    -2.027759     2.651246
 H     0.134505    -1.024874     3.061786
 C    -0.333927    -4.560005     1.531213
 H    -0.473753    -5.549936     1.090392
 C     0.713943    -3.117237     3.152783
 H     1.405728    -2.968514     3.985440
 C     0.555794    -4.384705     2.589850
 H     1.118587    -5.234965     2.980957
