  94
scf done:    -5023.069945
 C     1.054519    -0.279657    -3.462354
 H     0.804971     0.310988    -4.352942
 H     2.136405    -0.439748    -3.400844
 C     0.231458    -1.508331    -3.275408
 H    -0.530818    -1.678412    -4.050211
 H     0.823263    -2.425857    -3.132789
 H    -0.411023    -1.476242    -2.301483
Co     0.094474     0.138518    -1.827444
 C     1.282431    -1.474672     0.930680
 C     3.251425    -1.000523    -1.093115
 C     2.405910     1.161520     0.541605
 C    -1.549214     1.602555     0.637188
 C    -3.229020     0.570152    -1.463508
 C    -2.270734    -1.226469     0.457551
 P    -1.678979     0.210131    -0.542530
 P     1.713586    -0.266181    -0.392129
 C    -0.070580     1.740175    -2.379213
 O    -0.081079     2.842992    -2.740949
 C     1.397978    -1.231012     2.303625
 H     1.858862    -0.307057     2.655606
 C     0.670740    -2.668423     0.522858
 H     0.520270    -2.856903    -0.543532
 C     0.912491    -2.140780     3.240349
 H     0.984476    -1.934100     4.309551
 C     0.218912    -3.606422     1.443788
 H    -0.256847    -4.530984     1.116017
 C     0.328836    -3.327042     2.803681
Cl    -0.299654    -4.453702     3.962265
 C     3.652645    -2.321756    -0.905242
 H     3.079520    -2.962653    -0.232418
 C     4.023891    -0.178251    -1.940998
 O     3.597859     1.091124    -2.064356
 C     4.161825     1.936773    -3.023240
 H     5.216292     2.172041    -2.794392
 H     3.574247     2.863074    -2.999294
 H     4.101167     1.498760    -4.034952
 C     4.782118    -2.835386    -1.544875
 H     5.076100    -3.874382    -1.380786
 C     5.155563    -0.686446    -2.585227
 H     5.748371    -0.048565    -3.241711
 C     5.528883    -2.015238    -2.384422
 H     6.414738    -2.405185    -2.891715
 C     1.836320     2.421481     0.368033
 H     0.972992     2.514316    -0.291035
 C     3.550783     1.048667     1.361057
 O     4.085189    -0.180515     1.485246
 C     5.285433    -0.357467     2.178122
 H     6.096301     0.258740     1.752437
 H     5.550030    -1.417032     2.070893
 H     5.181869    -0.119766     3.251953
 C     2.347815     3.550530     1.005943
 H     1.867302     4.520727     0.867455
 C     4.070433     2.177621     2.003404
 H     4.949870     2.093355     2.642415
 C     3.462455     3.420713     1.825930
 H     3.875046     4.294072     2.337398
 C    -2.015850     2.867017     0.258640
 H    -2.576425     2.983979    -0.671743
 C    -0.804500     1.492363     1.816977
 H    -0.375421     0.532690     2.106476
 C    -1.754899     3.989149     1.038496
 H    -2.106856     4.975379     0.731710
 C    -0.555348     2.601902     2.618031
 H     0.040328     2.510110     3.527262
 C    -1.026374     3.848931     2.218521
Cl    -0.662650     5.249366     3.174283
 C    -3.198274     0.538339    -2.856159
 H    -2.228034     0.362669    -3.329700
 C    -4.458871     0.801620    -0.811396
 O    -4.430056     0.829279     0.531366
 C    -5.614442     1.010968     1.252423
 H    -6.073917     1.992947     1.044315
 H    -5.341220     0.963480     2.313958
 H    -6.349544     0.216383     1.036449
 C    -4.353809     0.728872    -3.612731
 H    -4.308414     0.703106    -4.703309
 C    -5.620872     0.997747    -1.565817
 H    -6.575796     1.184199    -1.073812
 C    -5.560247     0.958207    -2.959160
 H    -6.476240     1.114386    -3.534737
 C    -2.491593    -1.205346     1.834383
 H    -2.318281    -0.283486     2.388420
 C    -2.572020    -2.414393    -0.240700
 O    -2.366451    -2.385969    -1.574623
 C    -2.785584    -3.458985    -2.369047
 H    -2.228001    -4.384030    -2.139730
 H    -2.585915    -3.172420    -3.409031
 H    -3.865589    -3.651084    -2.250654
 C    -2.956813    -2.327998     2.517969
 H    -3.097403    -2.287452     3.599670
 C    -3.058712    -3.537248     0.433174
 H    -3.290624    -4.451928    -0.112855
 C    -3.237354    -3.493112     1.814873
 H    -3.596996    -4.381000     2.339636
