  90
scf done:    -5119.186978
 C     0.226857    -2.627868    -3.265581
 H    -0.291987    -2.754909    -4.223101
 H     1.308716    -2.727748    -3.414737
 C    -0.339337    -3.416947    -2.137464
 H    -1.225767    -4.017741    -2.380436
 H     0.388809    -4.043834    -1.600910
 H    -0.713831    -2.739735    -1.257539
Co    -0.444502    -1.225492    -2.095364
 C     1.744792    -0.983744     0.593674
 C     2.971290    -1.293238    -2.019918
 C     1.722468     1.247660    -1.335147
 C    -1.875248     1.422804    -0.370861
 C    -3.659258    -0.427571    -1.521857
 C    -2.189330    -1.139996     0.895080
 P    -1.935907    -0.369638    -0.776414
 P     1.447503    -0.599988    -1.174654
 C    -0.948075    -0.353501    -3.458705
 O    -1.225283     0.280592    -4.392146
 C     1.233689    -0.154321     1.604776
 H     0.746391     0.787588     1.346355
 C     2.333206    -2.195317     0.982664
 H     2.697012    -2.896873     0.229376
 C     1.343599    -0.496216     2.949004
 H     0.955401     0.165829     3.724735
 C     2.455111    -2.551210     2.323281
 H     2.922779    -3.494269     2.611455
 C     1.963742    -1.693583     3.306226
Cl     2.107285    -2.125789     4.975169
 H     2.951091    -2.381144    -1.852899
 H     2.732993    -1.155266    -3.085333
 C     4.312816    -0.710481    -1.708325
 C     4.811346     0.356495    -2.470565
 H     4.238019     0.719468    -3.327672
 C     5.104861    -1.180554    -0.650465
 H     4.762737    -2.021835    -0.047143
 C     6.025712     0.965846    -2.169127
 H     6.408365     1.801370    -2.757599
 C     6.324794    -0.587271    -0.337029
 H     6.939709    -0.950030     0.488495
 C     6.766713     0.490064    -1.095159
 F     7.928645     1.066362    -0.795488
 H     2.369687     1.340917    -2.221919
 H     0.743956     1.641203    -1.635251
 C     2.257101     2.078422    -0.202969
 C     1.501341     3.168069     0.245622
 H     0.552118     3.392238    -0.241422
 C     3.472831     1.815237     0.440967
 H     4.082331     0.967779     0.130853
 C     1.924379     3.970556     1.302089
 H     1.327512     4.818347     1.643924
 C     3.914619     2.606998     1.496237
 H     4.859594     2.400490     2.001822
 C     3.132438     3.675223     1.919139
 F     3.550256     4.428505     2.936497
 C    -2.013627     1.936496     0.922749
 H    -2.125329     1.269489     1.778371
 C    -1.757481     2.328731    -1.436922
 H    -1.648971     1.960702    -2.460525
 C    -2.028088     3.309958     1.155883
 H    -2.127901     3.702799     2.168794
 C    -1.789364     3.702596    -1.221656
 H    -1.697107     4.401223    -2.054758
 C    -1.917625     4.187383     0.081050
Cl    -1.897736     5.892979     0.367219
 H    -3.543821     0.056416    -2.503501
 H    -3.855274    -1.489925    -1.730704
 C    -4.749893     0.211962    -0.720250
 C    -5.498372    -0.512023     0.218049
 H    -5.331398    -1.584733     0.338052
 C    -5.025872     1.580494    -0.857397
 H    -4.471928     2.169281    -1.591049
 C    -6.470362     0.100538     1.005806
 H    -7.055722    -0.464160     1.733513
 C    -5.991147     2.210528    -0.079297
 H    -6.204129     3.275580    -0.186205
 C    -6.699978     1.461158     0.851566
 F    -7.624147     2.056775     1.602961
 H    -1.399253    -0.728536     1.539000
 H    -3.159018    -0.801016     1.294437
 C    -2.074113    -2.636485     0.895004
 C    -3.034603    -3.467673     0.303435
 H    -3.924010    -3.036429    -0.158035
 C    -0.953006    -3.241513     1.474637
 H    -0.194349    -2.617183     1.947134
 C    -2.880818    -4.851188     0.279052
 H    -3.626567    -5.501075    -0.182043
 C    -0.780540    -4.622224     1.459848
 H     0.094879    -5.090197     1.913649
 C    -1.748253    -5.413400     0.855156
 F    -1.591874    -6.735394     0.830077
