  80
scf done:    -3272.778010
 C    -1.755147    -0.802140     2.425438
 H    -1.532241    -1.014438     3.478054
 H    -2.607806    -0.111667     2.359560
 C    -1.881401    -2.004502     1.554280
 H    -1.679047    -2.963540     2.051033
 H    -2.829178    -2.061341     0.997217
 H    -1.112108    -1.982044     0.678159
Co    -0.229640    -0.576546     1.224788
 C    -2.927259     0.571873    -0.372274
 C    -1.758491     2.448739     1.492583
 C    -0.666210     2.161362    -1.190976
 C     2.668516    -0.018230    -0.525457
 C     2.554606    -2.406719     1.035176
 C     1.095105    -2.210899    -1.612823
 P     1.454572    -1.297738    -0.013940
 P    -1.273165     1.117402     0.253205
 C     0.769502    -0.313569     2.571944
 O     1.416866    -0.079067     3.510334
 C    -2.942503    -0.457889    -1.328124
 H    -1.993920    -0.858357    -1.690985
 C    -4.165913     1.000477     0.117179
 H    -4.223486     1.777752     0.880003
 C    -4.130318    -0.999916    -1.800794
 H    -4.096012    -1.797832    -2.548585
 C    -5.359617     0.443466    -0.345161
 H    -6.307933     0.800132     0.066903
 C    -5.369741    -0.558034    -1.317149
 C    -6.651149    -1.147343    -1.828674
 H    -7.516962    -0.791762    -1.252766
 H    -6.817898    -0.878126    -2.884546
 H    -6.635965    -2.247152    -1.775611
 H    -2.554479     1.944117     2.064480
 C    -0.650456     2.761291     2.492513
 H    -1.014649     3.492950     3.232207
 H    -0.327971     1.862231     3.029590
 H     0.239201     3.193316     2.011390
 C    -2.340385     3.724971     0.890878
 H    -3.110845     3.530972     0.130644
 H    -2.800832     4.336595     1.684081
 H    -1.560624     4.344569     0.423127
 H    -1.463267     2.896427    -1.388572
 C     0.609341     2.902218    -0.802444
 H     1.017943     3.436137    -1.675397
 H     0.435823     3.645506    -0.013173
 H     1.382247     2.208966    -0.444924
 C    -0.461219     1.347890    -2.459515
 H    -1.406667     0.965537    -2.866778
 H     0.009390     1.973697    -3.234849
 H     0.207627     0.495713    -2.275813
 C     3.293904     0.724346     0.490846
 H     3.076082     0.510778     1.539619
 C     2.955961     0.323574    -1.849914
 H     2.492271    -0.214171    -2.677724
 C     4.170395     1.757437     0.186648
 H     4.637584     2.317083     1.001963
 C     3.829454     1.369322    -2.149437
 H     4.026794     1.616044    -3.196391
 C     4.452905     2.106601    -1.141583
 C     5.379199     3.243596    -1.456555
 H     4.956646     4.202964    -1.116504
 H     6.349095     3.121542    -0.949579
 H     5.567602     3.324224    -2.536202
 H     2.693181    -1.750379     1.910345
 C     1.781243    -3.625159     1.522835
 H     2.324636    -4.120949     2.342645
 H     0.791181    -3.328020     1.900054
 H     1.645064    -4.370256     0.723337
 C     3.942236    -2.761004     0.515349
 H     4.453343    -1.893192     0.073367
 H     4.562864    -3.119312     1.352891
 H     3.919001    -3.563377    -0.233532
 H     0.784331    -1.385603    -2.276880
 C     2.272519    -2.932908    -2.261682
 H     2.024835    -3.185728    -3.305685
 H     3.196038    -2.339007    -2.268196
 H     2.485102    -3.879246    -1.743787
 C    -0.100238    -3.152766    -1.498470
 H    -1.009668    -2.634919    -1.168925
 H    -0.311052    -3.604490    -2.481048
 H     0.089936    -3.974531    -0.792980
