  78
scf done:    -6403.161095
 C     0.822509     0.448395     3.588319
 H     0.685026    -0.187586     4.471207
 H     1.859998     0.797870     3.529675
 C    -0.207348     1.509983     3.415673
 H    -0.991328     1.532475     4.185996
 H     0.193050     2.524490     3.272518
 H    -0.836574     1.353382     2.440698
Co    -0.036797    -0.116389     1.931939
 C     1.487432     1.891696    -0.371216
 C     3.323432     0.473517     1.316670
 C     2.035147    -0.954041    -0.646732
 C    -1.491906    -1.604465    -0.779676
 C    -3.275335    -0.693598     1.248010
 C    -2.118292     1.205721    -0.508318
 P    -1.654671    -0.281272     0.474062
 P     1.627538     0.340328     0.600992
 C    -0.194603    -1.716967     2.514868
 O    -0.204973    -2.819950     2.870174
 C     1.036090     1.937878    -1.695636
 H     0.900609     1.012509    -2.257087
 C     1.633870     3.107176     0.316936
 H     1.970725     3.105249     1.357680
 C     0.744499     3.147200    -2.320911
 H     0.376854     3.170925    -3.347850
 C     1.355474     4.323366    -0.295787
 H     1.474826     5.263474     0.245523
 C     0.902579     4.336783    -1.615694
Cl     0.491158     5.841022    -2.363524
 C     3.674168    -0.473859     2.287484
 H     2.921270    -1.185441     2.637238
 C     4.297603     1.374081     0.874948
 H     4.057659     2.112561     0.106904
 C     4.961457    -0.522593     2.809958
 H     5.232391    -1.262695     3.564504
 C     5.588537     1.343903     1.397574
 H     6.347206     2.049333     1.054680
 C     5.913288     0.394447     2.364116
Cl     7.515671     0.351185     3.017102
 C     2.811480    -0.696052    -1.783693
 H     3.167953     0.315926    -1.989098
 C     1.654836    -2.272798    -0.379511
 H     1.067180    -2.494795     0.511729
 C     3.150045    -1.718033    -2.664316
 H     3.742784    -1.515062    -3.557763
 C     2.008537    -3.309421    -1.237431
 H     1.701486    -4.335348    -1.030811
 C     2.737754    -3.022251    -2.388508
Cl     3.137067    -4.293759    -3.491096
 C    -1.767583    -2.925592    -0.404046
 H    -2.170237    -3.139222     0.589074
 C    -0.957668    -1.366385    -2.051293
 H    -0.721767    -0.347829    -2.362140
 C    -1.521997    -3.981060    -1.275985
 H    -1.731882    -5.009936    -0.979565
 C    -0.711981    -2.411724    -2.934899
 H    -0.283241    -2.223554    -3.920095
 C    -0.990828    -3.717960    -2.538308
Cl    -0.641466    -5.028979    -3.608925
 C    -3.393986    -0.624743     2.637758
 H    -2.507550    -0.378597     3.227720
 C    -4.399778    -1.042089     0.488925
 H    -4.328960    -1.117714    -0.598382
 C    -4.608592    -0.886072     3.267402
 H    -4.700653    -0.834213     4.353337
 C    -5.616639    -1.312668     1.102618
 H    -6.492799    -1.590383     0.514627
 C    -5.714345    -1.228822     2.493337
Cl    -7.227688    -1.563493     3.260960
 C    -2.850717     1.144982    -1.701540
 H    -3.139376     0.180567    -2.124193
 C    -1.771382     2.463926    -0.005878
 H    -1.175804     2.534541     0.905103
 C    -3.209848     2.304041    -2.381568
 H    -3.769953     2.253048    -3.316616
 C    -2.140087     3.632905    -0.662381
 H    -1.854214     4.609884    -0.271305
 C    -2.850481     3.545768    -1.857204
Cl    -3.276295     4.987846    -2.709062
