 108
scf done:    -4039.191000
 C    -0.275811     2.369538    -3.265912
 H     0.287931     2.550051    -4.189125
 H    -1.348226     2.319373    -3.490694
 C     0.098474     3.246080    -2.122241
 H     0.903577     3.966922    -2.318315
 H    -0.745633     3.766217    -1.643996
 H     0.511093     2.643487    -1.206877
Co     0.496027     1.091255    -2.018085
 C    -1.811488     0.747654     0.548408
 C    -2.888326     0.702825    -2.156208
 C    -1.396715    -1.606959    -1.175083
 C     2.124256    -1.296150    -0.096559
 C     3.751947     0.686329    -1.250486
 C     2.082322     1.346488     1.049028
 P     2.004493     0.469452    -0.588180
 P    -1.356234     0.269597    -1.161884
 C     1.183464     0.254751    -3.320796
 O     1.590600    -0.362175    -4.218411
 C    -1.237924     0.088631     1.648404
 H    -0.598704    -0.782051     1.490842
 C    -2.600915     1.872495     0.812842
 H    -3.030563     2.448037    -0.009523
 C    -1.480527     0.514774     2.948771
 H    -1.027106    -0.032386     3.780305
 C    -2.849783     2.291735     2.119018
 H    -3.482011     3.167826     2.288383
 C    -2.298765     1.621584     3.214192
 C    -2.545901     2.078591     4.621518
 H    -1.621439     2.464762     5.081397
 H    -3.297379     2.879803     4.659412
 H    -2.899233     1.250834     5.255959
 H    -3.014129     1.792491    -2.063446
 H    -2.552460     0.529676    -3.189693
 C    -4.167852    -0.025810    -1.896573
 C    -4.471570    -1.190315    -2.615111
 H    -3.798281    -1.526936    -3.408031
 C    -5.077790     0.399970    -0.919538
 H    -4.868992     1.309485    -0.354466
 C    -5.620190    -1.922594    -2.327550
 H    -5.834535    -2.836368    -2.886851
 C    -6.236903    -0.320506    -0.618464
 C    -7.185021     0.167856     0.438110
 H    -6.663531     0.770192     1.196098
 H    -7.975247     0.800084    -0.000271
 H    -7.682787    -0.669186     0.949221
 C    -6.493480    -1.498856    -1.329273
 H    -7.388515    -2.084370    -1.101763
 H    -1.990234    -1.855276    -2.069050
 H    -0.364891    -1.902882    -1.396514
 C    -1.891886    -2.380093     0.013964
 C    -1.023777    -3.268433     0.662060
 H    -0.009231    -3.399048     0.283411
 C    -3.183185    -2.225469     0.522680
 H    -3.869099    -1.528879     0.042050
 C    -1.440341    -3.965347     1.792270
 H    -0.748461    -4.649186     2.291236
 C    -3.618108    -2.915794     1.658112
 C    -5.007411    -2.688441     2.180481
 H    -5.758112    -2.860230     1.393408
 H    -5.237339    -3.349871     3.027845
 H    -5.132889    -1.646700     2.518023
 C    -2.729421    -3.789082     2.292457
 H    -3.050269    -4.333496     3.185096
 C     2.117868    -2.257232    -1.119557
 H     1.961930    -1.949328    -2.156780
 C     2.338189    -1.731812     1.213656
 H     2.369815    -1.018301     2.038247
 C     2.338725    -3.600629    -0.837908
 H     2.337860    -4.326183    -1.656115
 C     2.544439    -3.082419     1.492143
 H     2.712586    -3.394649     2.526465
 C     2.554732    -4.040827     0.475444
 C     2.751990    -5.496887     0.776062
 H     3.206200    -5.647538     1.765611
 H     1.787305    -6.031417     0.768921
 H     3.394048    -5.979996     0.024380
 H     3.730756     0.179186    -2.226786
 H     3.857490     1.760623    -1.462505
 C     4.848639     0.153091    -0.381563
 C     5.470060     0.940083     0.598584
 H     5.212467     1.996567     0.698325
 C     5.239830    -1.186004    -0.493112
 H     4.776604    -1.808912    -1.262219
 C     6.427291     0.389395     1.446545
 H     6.907052     1.017229     2.201451
 C     6.187084    -1.761123     0.358525
 C     6.525117    -3.218437     0.233182
 H     5.679544    -3.840879     0.569521
 H     6.732089    -3.494090    -0.812193
 H     7.403126    -3.485592     0.837951
 C     6.777754    -0.954503     1.336073
 H     7.524675    -1.381536     2.010859
 H     1.291524     0.899244     1.667978
 H     3.052754     1.117361     1.517898
 C     1.852059     2.826927     0.950322
 C     2.816970     3.693869     0.419455
 H     3.781705     3.306676     0.090024
 C     0.632849     3.368742     1.368873
 H    -0.126087     2.702330     1.784964
 C     2.556910     5.055715     0.305701
 H     3.318962     5.720299    -0.108619
 C     0.354241     4.736580     1.261393
 C    -0.975324     5.279472     1.697489
 H    -1.280075     4.861220     2.668006
 H    -0.955322     6.375230     1.781376
 H    -1.763744     5.011686     0.975048
 C     1.332654     5.575421     0.720495
 H     1.135307     6.646934     0.628740
