 108
scf done:    -3739.378608
 C    -0.914933     0.377742    -3.280499
 H    -0.790604    -0.282399    -4.147773
 H    -1.962255     0.703006    -3.224434
 C     0.080921     1.487855    -3.202210
 H     0.892236     1.430110    -3.940627
 H    -0.348532     2.501646    -3.225379
 H     0.627571     1.488075    -2.177153
Co     0.002135    -0.063245    -1.615149
 C    -1.823835     1.529926     0.989076
 C    -3.399626     0.266575    -1.074444
 C    -1.849209    -1.361939     0.897246
 C     1.794982    -1.529905     1.005528
 C     3.289616    -0.381017    -1.127692
 C     1.933144     1.473492     0.815493
 P     1.692173    -0.088957    -0.172574
 P    -1.729499     0.127720    -0.233507
 C     0.407725    -1.548762    -2.340483
 O     0.623018    -2.560232    -2.870644
 C    -1.686811     1.316989     2.369504
 H    -1.587461     0.303233     2.753850
 C    -1.959525     2.866380     0.541345
 C    -2.092198     3.216177    -0.911017
 H    -3.144741     3.193951    -1.237491
 H    -1.538854     2.504107    -1.536263
 H    -1.707739     4.226788    -1.108632
 C    -1.689120     2.363116     3.289163
 H    -1.579179     2.147162     4.354685
 C    -1.975371     3.905978     1.478144
 H    -2.080629     4.932374     1.115324
 C    -1.843246     3.671270     2.843051
 H    -1.854059     4.504787     3.549118
 H    -3.201147     1.033981    -1.841032
 C    -4.598746     0.769378    -0.269163
 H    -4.342911     1.683327     0.288229
 H    -4.891398     0.023708     0.485358
 C    -5.783296     1.028863    -1.197716
 H    -6.652602     1.374438    -0.614462
 H    -5.526967     1.853170    -1.888980
 C    -6.145090    -0.210880    -2.009068
 H    -6.975566     0.009529    -2.699591
 H    -6.513567    -0.994199    -1.321560
 C    -4.941585    -0.749379    -2.775442
 H    -4.641460    -0.018977    -3.548757
 H    -5.208614    -1.674749    -3.311369
 C    -3.757214    -1.003847    -1.848218
 H    -4.024726    -1.806028    -1.140133
 H    -2.882915    -1.359608    -2.414913
 H    -1.013044    -1.186990     1.599658
 C    -1.514144    -2.682221     0.199084
 H    -0.580975    -2.570763    -0.363486
 H    -2.293947    -2.927293    -0.539863
 C    -1.388865    -3.815588     1.210536
 H    -1.164265    -4.758551     0.686193
 H    -0.522183    -3.612507     1.861450
 C    -2.637165    -3.963159     2.070875
 H    -2.495913    -4.753966     2.825884
 H    -3.484547    -4.284822     1.438056
 C    -2.995593    -2.642166     2.740333
 H    -2.204241    -2.371951     3.464268
 H    -3.927894    -2.739888     3.320704
 C    -3.136732    -1.524705     1.710614
 H    -3.958162    -1.786216     1.023494
 H    -3.434056    -0.586151     2.200320
 C     2.013379    -2.747883     0.332088
 H     2.042951    -2.760756    -0.758142
 C     1.686109    -1.566966     2.416206
 C     1.360728    -0.397268     3.303764
 H     0.496305     0.173901     2.946167
 H     2.199191     0.306894     3.397835
 H     1.121879    -0.753014     4.315148
 C     2.195442    -3.952713     0.996971
 H     2.367860    -4.866452     0.424273
 C     1.877231    -2.797884     3.067845
 H     1.801574    -2.817160     4.158406
 C     2.146635    -3.977014     2.387199
 H     2.291030    -4.909389     2.937633
 H     2.995496    -1.239426    -1.757146
 C     4.549223    -0.800090    -0.365521
 H     4.327300    -1.615357     0.338160
 H     4.928733     0.039453     0.235715
 C     5.637769    -1.232988    -1.344831
 H     6.545031    -1.527553    -0.792500
 H     5.298134    -2.133681    -1.887688
 C     5.958961    -0.129886    -2.347067
 H     6.719211    -0.471389    -3.068307
 H     6.404842     0.726533    -1.808620
 C     4.705574     0.338239    -3.077151
 H     4.325270    -0.480608    -3.713893
 H     4.943087     1.174354    -3.755121
 C     3.605556     0.752969    -2.103800
 H     3.933790     1.647514    -1.546615
 H     2.698314     1.032514    -2.656873
 H     1.166901     1.388006     1.601082
 C     1.541827     2.720877     0.017652
 H     0.540080     2.572742    -0.406968
 H     2.231302     2.865823    -0.831098
 C     1.551708     3.958416     0.908652
 H     1.291712     4.849382     0.313648
 H     0.756667     3.849737     1.665559
 C     2.890485     4.153148     1.609091
 H     2.850163     5.026994     2.279501
 H     3.670992     4.373304     0.857888
 C     3.287676     2.902878     2.384735
 H     2.569927     2.741776     3.209919
 H     4.277491     3.033734     2.851795
 C     3.296289     1.677375     1.475818
 H     4.052626     1.834205     0.689576
 H     3.613533     0.779295     2.027229
