  74
scf done:    -4113.155198
 C     0.661096    -3.847071    -0.077914
 H     0.029561    -4.723006     0.113761
 H     1.227614    -3.998987    -1.003784
 C     1.479484    -3.407985     1.089514
 H     1.333128    -3.992837     2.008702
 H     2.558895    -3.322809     0.886628
 H     1.211161    -2.323870     1.428343
Co    -0.107524    -2.096454     0.303416
 C     1.897326     0.399887    -0.812444
 C     1.972577    -1.936832    -2.485344
 C    -0.418737    -0.088898    -2.479968
 C    -1.771123     0.819818     0.657626
 C    -2.033178    -1.031607     2.835297
 C     0.502161     0.610499     2.448309
 P    -0.783167    -0.429829     1.573978
 P     0.803517    -0.973065    -1.370727
 C    -1.657109    -2.776009     0.176420
 O    -2.716292    -3.227683     0.008907
 C     1.606174     1.763834    -0.938871
 H     0.731891     2.092306    -1.500542
 C     3.041673     0.046002    -0.077674
 H     3.293136    -1.010520     0.051714
 C     2.403176     2.736936    -0.335525
 H     2.157899     3.796190    -0.432042
 C     3.855927     1.001273     0.516538
 H     4.738414     0.709654     1.088310
 C     3.521792     2.351565     0.397225
Cl     4.503953     3.550675     1.169672
 H     2.508615    -2.560932    -1.747180
 C     1.187328    -2.884204    -3.389125
 H     1.854278    -3.660652    -3.796600
 H     0.369042    -3.384290    -2.851577
 H     0.752823    -2.346580    -4.244970
 C     3.018985    -1.154425    -3.269590
 H     3.611768    -0.487005    -2.628923
 H     3.716592    -1.857207    -3.754901
 H     2.568298    -0.542971    -4.062692
 H    -0.806183     0.681531    -1.791513
 C     0.150388     0.604664    -3.713937
 H    -0.607549     1.281256    -4.141669
 H     1.049855     1.199704    -3.503722
 H     0.408002    -0.124316    -4.496334
 C    -1.608831    -0.966805    -2.854569
 H    -2.028692    -1.482324    -1.982808
 H    -2.400086    -0.342203    -3.299063
 H    -1.335856    -1.731920    -3.595191
 C    -2.955349     0.390318     0.036506
 H    -3.301250    -0.637774     0.164195
 C    -1.358746     2.140213     0.440818
 H    -0.445478     2.518278     0.899486
 C    -3.695054     1.239021    -0.777976
 H    -4.608770     0.890381    -1.261690
 C    -2.084374     3.000068    -0.382086
 H    -1.749144     4.024749    -0.551547
 C    -3.247984     2.542681    -0.994365
Cl    -4.145102     3.597229    -2.033023
 H    -2.720826    -1.583855     2.172312
 C    -1.396846    -2.062686     3.759610
 H    -2.174351    -2.615642     4.309593
 H    -0.806105    -2.788746     3.180253
 H    -0.740014    -1.590138     4.506343
 C    -2.854836     0.007286     3.586749
 H    -3.235543     0.795987     2.921135
 H    -3.725643    -0.481848     4.052704
 H    -2.284281     0.486800     4.392937
 H     0.964675     1.140629     1.598087
 C    -0.020373     1.640920     3.445879
 H     0.767120     2.382500     3.656837
 H    -0.906924     2.183174     3.090635
 H    -0.280992     1.165288     4.402525
 C     1.607591    -0.225054     3.085917
 H     2.095574    -0.885212     2.358959
 H     2.383370     0.444411     3.489882
 H     1.234886    -0.842874     3.916009
