  78
scf done:    -4565.276901
 C     1.070025    -0.145432     3.551241
 H     0.612447    -0.565211     4.455433
 H     2.105500    -0.491669     3.452906
 C     0.878821     1.321302     3.377570
 H     0.293947     1.814876     4.166894
 H     1.803063     1.890505     3.198121
 H     0.248738     1.569106     2.422744
Co    -0.020951    -0.088869     1.936844
 C     2.261633     0.627705    -0.491886
 C     3.032469    -1.570719     1.188768
 C     1.057730    -2.019690    -0.673373
 C    -2.177318    -0.440538    -0.674816
 C    -3.011955     1.351674     1.384394
 C    -1.043726     2.216048    -0.463228
 P    -1.489568     0.738477     0.544427
 P     1.534869    -0.710144     0.535551
 C    -1.073749    -1.278872     2.566773
 O    -1.724153    -2.156090     2.956234
 C     1.856275     0.902704    -1.803089
 H     1.198125     0.207113    -2.325084
 C     3.106425     1.552827     0.142622
 H     3.431365     1.373617     1.171511
 C     2.269475     2.056305    -2.463770
 H     1.929658     2.270250    -3.478055
 C     3.537689     2.703687    -0.506861
 H     4.194073     3.417191    -0.005733
 C     3.105258     2.955099    -1.809017
Cl     3.573148     4.424787    -2.598254
 C     2.813888    -2.548505     2.168503
 C     4.328321    -1.381485     0.698091
 C     5.161736    -3.113238     2.165083
 C     5.387261    -2.145308     1.188796
 C     3.869641    -3.317156     2.649711
 H     1.801132    -2.702107     2.551187
 H     3.682582    -4.077353     3.411952
 H     5.992376    -3.711540     2.547164
 H     6.395243    -1.984713     0.798221
 H     4.518217    -0.637914    -0.078954
 C    -0.009354    -2.861988    -0.346413
 C     1.793600    -2.277576    -1.837316
 C     0.354427    -4.148034    -2.357806
 C     1.432767    -3.324221    -2.682519
 C    -0.353112    -3.924386    -1.179428
 H    -0.577651    -2.680220     0.566224
 H    -1.194753    -4.568144    -0.915069
 H     0.067365    -4.966544    -3.022086
 H     2.007153    -3.506426    -3.594270
 H     2.662885    -1.663131    -2.083411
 C    -3.147749    -1.359164    -0.254806
 H    -3.564789    -1.291059     0.752808
 C    -1.651232    -0.564177    -1.965617
 H    -0.889320     0.134874    -2.311889
 C    -3.578142    -2.377878    -1.098784
 H    -4.325393    -3.099855    -0.765819
 C    -2.076092    -1.573877    -2.821734
 H    -1.649687    -1.676797    -3.820245
 C    -3.031999    -2.483282    -2.376916
Cl    -3.513321    -3.787764    -3.408947
 C    -2.998702     1.493190     2.773855
 C    -4.163170     1.709651     0.671244
 C    -5.254959     2.349473     2.728960
 C    -5.278946     2.202497     1.340698
 C    -4.113999     1.994879     3.444174
 H    -2.104611     1.185050     3.321632
 H    -4.091944     2.099936     4.531473
 H    -6.132350     2.736841     3.252589
 H    -6.174837     2.472890     0.776615
 H    -4.194571     1.592465    -0.414337
 C    -0.013532     3.040683    -0.000096
 C    -1.725057     2.585047    -1.631264
 C    -0.339957     4.554206    -1.850132
 C    -1.368693     3.740292    -2.323401
 C     0.330277     4.205626    -0.680409
 H     0.544813     2.753722     0.891832
 H     1.146469     4.829472    -0.310505
 H    -0.053341     5.454981    -2.397599
 H    -1.902390     4.007451    -3.238767
 H    -2.534863     1.961942    -2.016230
