  60
scf done:    -3259.293167
 C    -0.565663    -3.225500     0.704293
 H     0.102063    -3.944580     1.192175
 H    -1.512651    -3.136919     1.246892
 C    -0.666655    -3.367325    -0.773358
 H     0.015635    -4.102873    -1.219468
 H    -1.686786    -3.539745    -1.147932
 H    -0.402709    -2.363937    -1.329104
Co     0.207840    -1.538989     0.090653
 C    -2.464275     0.819392     0.146875
 O    -2.290183    -1.117231     2.004025
 O    -0.661805     0.861022     2.002757
 C     2.581451     0.879821    -0.366151
 O     2.089956    -0.742420    -2.375521
 O     0.414468     1.098743    -1.876873
 P     1.234991    -0.100028    -1.113878
 P    -1.270830    -0.300109     0.989951
 C     1.599260    -1.930081     1.014584
 O     2.471008    -2.196437     1.724674
 C    -2.378780     2.209300     0.281079
 H    -1.638098     2.625740     0.963263
 C    -3.449988     0.265001    -0.698751
 C    -3.612924    -1.218736    -0.843658
 H    -4.016736    -1.671408     0.075010
 H    -2.639741    -1.699092    -1.017927
 H    -4.283743    -1.468004    -1.677114
 C    -3.226475     3.055458    -0.429836
 H    -3.137281     4.138238    -0.314405
 C    -4.296171     1.129151    -1.400398
 H    -5.057629     0.701507    -2.058670
 C    -4.185725     2.512696    -1.280151
 H    -4.855236     3.164563    -1.846691
 C    -3.252027    -0.439322     2.780321
 H    -2.808051     0.417163     3.312305
 H    -4.084661    -0.068744     2.157976
 H    -3.645020    -1.155843     3.515311
 C     0.461569     0.577154     2.811624
 H     0.360068    -0.391817     3.325487
 H     1.391690     0.568052     2.223381
 H     0.523030     1.375573     3.564301
 C     3.797398     0.191343    -0.255630
 H     3.880170    -0.813692    -0.673255
 C     2.464658     2.180449     0.169093
 C     1.207112     2.994166     0.104065
 H     0.347362     2.421155     0.470300
 H     0.974400     3.283683    -0.929713
 H     1.306128     3.901879     0.715463
 C     4.900183     0.760099     0.370789
 H     5.834912     0.200406     0.445562
 C     3.590950     2.733541     0.792858
 H     3.511219     3.742145     1.207343
 C     4.794021     2.043021     0.899126
 H     5.647659     2.509095     1.397284
 C     1.979022    -2.088535    -2.762105
 H     2.038982    -2.766780    -1.895094
 H     1.033574    -2.287940    -3.296443
 H     2.813500    -2.301172    -3.445355
 C    -0.671829     0.750764    -2.702408
 H    -0.327660     0.553376    -3.731056
 H    -1.193048    -0.143560    -2.319106
 H    -1.383646     1.587715    -2.705494
