  82
scf done:    -4145.512938
 C     1.105200    -1.936772    -2.870424
 H     0.932015    -1.943519    -3.952637
 H     2.166491    -1.756666    -2.660881
 C     0.498950    -3.075296    -2.119749
 H    -0.027401    -3.810517    -2.743896
 H     1.194974    -3.587885    -1.440028
 H    -0.339488    -2.739096    -1.375080
Co    -0.246114    -1.037618    -1.783431
 C     2.778421    -0.969412    -0.232169
 O     1.610296     1.389634    -1.040981
 O     0.644861     0.125163     1.010682
 C    -2.170427     1.168927    -0.081982
 O    -3.342520    -1.025604    -1.183653
 O    -1.996108    -1.194753     0.991933
 P    -1.874830    -0.559921    -0.545093
 P     1.184309    -0.137755    -0.552849
 C    -0.887665    -0.306947    -3.207867
 O    -1.226897     0.253685    -4.157009
 C     2.764362    -2.008745     0.709400
 H     1.856677    -2.204453     1.286786
 C     3.925290    -0.779461    -1.014178
 H     3.952594     0.000144    -1.777594
 C     3.884169    -2.809884     0.906304
 H     3.887538    -3.619110     1.638698
 C     5.052812    -1.573953    -0.825400
 H     5.957632    -1.430330    -1.418318
 C     5.019324    -2.574201     0.138465
 F     6.095119    -3.334293     0.322521
 C     2.760674     2.128878    -0.998698
 C     3.595844     2.205789     0.116948
 H     3.364556     1.646034     1.022084
 C     3.064147     2.850889    -2.155799
 H     2.390719     2.767353    -3.010967
 C     4.735342     3.006259     0.061055
 H     5.384889     3.062106     0.937750
 C     4.202689     3.650588    -2.196426
 H     4.432265     4.214004    -3.104062
 C     5.046043     3.730615    -1.088123
 H     5.940218     4.356779    -1.119939
 C     1.117946     1.019889     1.926180
 C     0.719435     2.355646     1.852544
 H     0.052604     2.665265     1.047734
 C     1.966028     0.587628     2.947567
 H     2.264180    -0.460656     2.988064
 C     1.192756     3.264027     2.794334
 H     0.887194     4.310867     2.729288
 C     2.431754     1.506990     3.886953
 H     3.099737     1.170454     4.683494
 C     2.052944     2.846614     3.810644
 H     2.424274     3.564380     4.545266
 C    -2.823779     1.521671     1.106080
 H    -3.151370     0.741182     1.793835
 C    -1.729834     2.173651    -0.950721
 H    -1.191287     1.910562    -1.862634
 C    -3.046272     2.857878     1.416809
 H    -3.550973     3.154954     2.337560
 C    -1.950117     3.515170    -0.649846
 H    -1.609149     4.313000    -1.311538
 C    -2.609007     3.837018     0.530804
 F    -2.818034     5.116379     0.827476
 C    -4.542111    -0.636696    -0.641308
 C    -5.200985     0.467819    -1.180767
 H    -4.738373     1.002112    -2.012566
 C    -5.096632    -1.345957     0.424060
 H    -4.564274    -2.207360     0.830349
 C    -6.421732     0.867968    -0.643985
 H    -6.937168     1.734571    -1.064648
 C    -6.318880    -0.936289     0.954050
 H    -6.755380    -1.490128     1.788707
 C    -6.982795     0.170425     0.425847
 H    -7.939745     0.487662     0.846025
 C    -1.463267    -2.402101     1.328492
 C    -1.757661    -3.557759     0.601046
 H    -2.432729    -3.496902    -0.255576
 C    -0.624473    -2.460198     2.442757
 H    -0.416752    -1.538170     2.987471
 C    -1.185133    -4.771171     0.981842
 H    -1.410938    -5.673599     0.408815
 C    -0.069036    -3.680114     2.819780
 H     0.585353    -3.725995     3.694021
 C    -0.337949    -4.837548     2.086526
 H     0.104925    -5.790989     2.382184
