  96
scf done:    -3882.038499
 C     1.145432    -0.762674    -2.980511
 H     0.793143    -0.529390    -3.992916
 H     2.233052    -0.621553    -2.915563
 C     0.662560    -2.051290    -2.420226
 H    -0.054084    -2.603256    -3.043623
 H     1.462777    -2.723032    -2.073650
 H     0.093966    -1.889307    -1.411123
Co     0.019687    -0.145261    -1.505360
 C     2.640863    -1.273879     0.055599
 C     3.088327     1.373971    -0.978301
 C     1.602392     1.108315     1.424528
 C    -2.630125     1.281046     0.036929
 C    -3.099358    -1.344054    -0.971316
 C    -1.588241    -1.058574     1.479119
 P    -1.761876    -0.319088    -0.211212
 P     1.762877     0.313769    -0.235760
 C    -0.662778     1.095091    -2.466335
 O    -1.034097     1.989147    -3.101866
 C     1.994102    -2.287427     0.780919
 H     1.036874    -2.082288     1.264473
 C     3.821820    -1.604468    -0.617387
 H     4.339244    -0.848029    -1.211881
 C     2.534840    -3.563074     0.868758
 H     2.009517    -4.325532     1.451817
 C     4.349050    -2.894179    -0.542433
 H     5.270887    -3.124707    -1.083917
 C     3.726346    -3.894755     0.207337
 C     4.305539    -5.274810     0.310714
 H     5.115778    -5.427935    -0.415848
 H     4.720775    -5.455354     1.316053
 H     3.539731    -6.046103     0.135486
 C     2.824747     1.910108    -2.244442
 H     1.875028     1.664385    -2.721647
 C     4.296750     1.708789    -0.322285
 C     4.660784     1.246045     1.059396
 H     4.363098     0.207480     1.249060
 H     4.162031     1.863718     1.823135
 H     5.745584     1.328889     1.216352
 C     3.725892     2.756144    -2.882234
 H     3.488310     3.162489    -3.867934
 C     5.194413     2.554754    -0.988358
 H     6.133856     2.811882    -0.490951
 C     4.923074     3.076863    -2.249486
 H     5.647735     3.736373    -2.733611
 C     1.751834     0.380331     2.610833
 H     2.010714    -0.677564     2.567792
 C     1.293028     2.488124     1.500040
 C     1.140628     3.360678     0.286505
 H     0.633082     2.836922    -0.537037
 H     2.120662     3.685327    -0.095793
 H     0.557771     4.260378     0.528398
 C     1.598108     0.978380     3.857056
 H     1.720439     0.379408     4.762325
 C     1.138665     3.067927     2.766090
 H     0.897587     4.133316     2.823993
 C     1.285950     2.332064     3.938196
 H     1.159854     2.817183     4.909098
 C    -3.877009     1.543290    -0.539872
 H    -4.402154     0.760316    -1.089792
 C    -1.977776     2.328937     0.697701
 H    -0.987895     2.166859     1.122780
 C    -4.460351     2.803570    -0.428168
 H    -5.436113     2.980434    -0.889106
 C    -2.571116     3.579117     0.818828
 H    -2.040180     4.371112     1.355180
 C    -3.825411     3.843849     0.255671
 C    -4.442528     5.207599     0.352799
 H    -4.302183     5.642864     1.353652
 H    -3.978845     5.899352    -0.370046
 H    -5.520159     5.179831     0.138221
 C    -2.907235    -1.684015    -2.314907
 H    -2.004553    -1.311319    -2.806236
 C    -4.272760    -1.768162    -0.304576
 C    -4.595208    -1.428802     1.122532
 H    -4.322798    -0.395555     1.374327
 H    -4.051333    -2.079018     1.825570
 H    -5.670612    -1.557218     1.309481
 C    -3.831282    -2.457309    -3.011289
 H    -3.656909    -2.706820    -4.060383
 C    -5.187253    -2.548007    -1.024563
 H    -6.098900    -2.880414    -0.520138
 C    -4.975637    -2.899792    -2.355485
 H    -5.714950    -3.509668    -2.880673
 C    -1.610863    -0.237638     2.613110
 H    -1.798031     0.829882     2.505447
 C    -1.363938    -2.446915     1.648079
 C    -1.376590    -3.438800     0.520498
 H    -0.899439    -3.051743    -0.387280
 H    -2.406124    -3.709135     0.237771
 H    -0.852146    -4.359535     0.811584
 C    -1.411304    -0.747356     3.891771
 H    -1.430945    -0.071881     4.749611
 C    -1.157718    -2.936576     2.944531
 H    -0.982504    -4.008635     3.072124
 C    -1.177545    -2.107343     4.061644
 H    -1.013111    -2.525314     5.057619
