 104
scf done:    -3587.044249
 C     0.356222     2.986353     1.035377
 H     0.348046     3.967522     0.544533
 H    -0.385582     2.976565     1.845655
 C     1.711160     2.502334     1.434671
 H     2.544325     3.141771     1.111661
 H     1.827395     2.274075     2.505613
 H     1.958739     1.477106     0.944121
Co     0.526578     1.386795    -0.065510
 C    -1.008696    -1.199066     1.733222
 C    -2.451836     1.326131     1.691831
 C    -2.295538    -0.249983    -0.657151
 C     0.527082    -1.314539    -2.265525
 C     2.960984     0.082451    -2.037299
 C     2.182872    -1.587065     0.209602
 P     1.495584    -0.362165    -0.993809
 P    -1.215529     0.339171     0.722632
 C     0.312833     2.340833    -1.467858
 O     0.052481     3.013374    -2.378208
 C    -1.223986    -2.460595     1.155127
 H    -1.605321    -2.532487     0.135404
 C    -0.476257    -1.143904     3.042104
 C    -0.173379     0.159775     3.721531
 H    -1.066180     0.575471     4.215084
 H     0.179819     0.907697     2.996466
 H     0.598516     0.032288     4.493357
 C    -0.946677    -3.640236     1.842175
 H    -1.131282    -4.604277     1.361647
 C    -0.207324    -2.338539     3.719645
 H     0.208777    -2.285800     4.729984
 C    -0.438906    -3.581429     3.136958
 H    -0.216127    -4.497111     3.689599
 H    -3.239393     0.654696     2.071097
 H    -1.939861     1.740511     2.571678
 C    -3.040484     2.469437     0.873948
 H    -2.226134     2.990953     0.343532
 H    -3.702937     2.070003     0.087760
 C    -3.818338     3.466117     1.721318
 H    -3.147645     3.885809     2.493560
 H    -4.618322     2.939275     2.273627
 C    -4.425434     4.603206     0.911676
 H    -3.621193     5.116246     0.355611
 H    -5.095591     4.180830     0.141904
 C    -5.187949     5.609421     1.758181
 H    -5.614212     6.417849     1.144897
 H    -4.532374     6.074776     2.511948
 H    -6.019160     5.128797     2.299301
 H    -2.368601     0.613487    -1.337615
 H    -1.709059    -0.987778    -1.222241
 C    -3.676988    -0.802688    -0.334256
 H    -3.619785    -1.532458     0.491001
 H    -4.333363     0.005427     0.029573
 C    -4.321177    -1.464356    -1.545654
 H    -3.666395    -2.280509    -1.903451
 H    -4.362694    -0.739007    -2.378605
 C    -5.715244    -2.012060    -1.277118
 H    -5.665639    -2.730319    -0.439359
 H    -6.365754    -1.191280    -0.926117
 C    -6.343957    -2.680862    -2.488856
 H    -7.349578    -3.068696    -2.265861
 H    -5.731063    -3.526913    -2.839861
 H    -6.438455    -1.974894    -3.329754
 C    -0.111111    -0.457550    -3.180373
 H     0.027874     0.620025    -3.086022
 C     0.337009    -2.709401    -2.409248
 C     1.015827    -3.774819    -1.591980
 H     0.666596    -3.796651    -0.549942
 H     2.105668    -3.644379    -1.569547
 H     0.810859    -4.762390    -2.026771
 C    -0.945971    -0.925950    -4.186361
 H    -1.421977    -0.219522    -4.869832
 C    -0.537540    -3.157224    -3.413621
 H    -0.697876    -4.234254    -3.513223
 C    -1.182840    -2.292836    -4.289270
 H    -1.854600    -2.688773    -5.054500
 H     3.454380    -0.845887    -2.373764
 H     2.537002     0.560986    -2.935767
 C     3.941187     1.033802    -1.370580
 H     3.370292     1.886862    -0.966023
 H     4.419203     0.544081    -0.504649
 C     5.021024     1.543069    -2.314215
 H     4.541450     2.040381    -3.176746
 H     5.580758     0.687475    -2.734620
 C     5.993570     2.508468    -1.651201
 H     5.424895     3.354921    -1.227123
 H     6.469135     2.007632    -0.788994
 C     7.064881     3.031500    -2.594174
 H     7.750961     3.726087    -2.086128
 H     6.618181     3.568988    -3.446062
 H     7.670299     2.208470    -3.007241
 H     1.354348    -2.251385     0.488104
 H     2.950400    -2.201886    -0.285791
 C     2.730848    -0.978802     1.491751
 H     3.545909    -0.266639     1.279006
 H     1.929223    -0.392161     1.964776
 C     3.219587    -2.038750     2.467319
 H     4.053688    -2.606401     2.015577
 H     2.408198    -2.769251     2.632551
 C     3.658809    -1.467648     3.807438
 H     4.476911    -0.743107     3.647136
 H     2.824793    -0.883325     4.234664
 C     4.098028    -2.530906     4.800512
 H     4.407330    -2.091209     5.760892
 H     4.948742    -3.113962     4.412381
 H     3.281409    -3.242019     5.006146
