  94
scf done:    -4302.665844
 C    -0.957882     1.087070    -3.221805
 H    -1.178616     0.563099    -4.158095
 H    -1.823501     1.689465    -2.914953
 C     0.353014     1.791224    -3.160248
 H     0.974204     1.706912    -4.061578
 H     0.287322     2.842520    -2.843807
 H     1.061709     1.359799    -2.333747
Co    -0.004059     0.052892    -1.860389
 C    -1.565615     2.380443     0.070054
 O    -3.044504     0.476216    -0.897531
 O    -1.414776    -0.168900     0.986973
 C     1.528685    -2.330073     0.049409
 O     3.069623    -0.525226    -1.037393
 O     1.566911     0.247772     0.900518
 P     1.477796    -0.619226    -0.529956
 P    -1.433990     0.652058    -0.476934
 C    -0.163680    -1.425163    -2.763689
 O    -0.374172    -2.416149    -3.311955
 C    -0.360573     3.077586     0.210869
 H     0.575769     2.572764    -0.039875
 C    -2.771496     3.014927     0.390482
 H    -3.710432     2.470865     0.276943
 C    -0.347569     4.387620     0.679285
 H     0.581254     4.947777     0.801667
 C    -2.772212     4.325639     0.855073
 H    -3.697941     4.841873     1.115495
 C    -1.559042     4.991822     0.996020
 F    -1.558367     6.244913     1.442675
 C    -3.447043    -0.611943    -1.623126
 C    -3.159868    -1.906758    -1.194204
 H    -2.628509    -2.043831    -0.250643
 C    -4.150470    -0.398141    -2.806877
 H    -4.365193     0.624356    -3.121429
 C    -3.526672    -3.013082    -1.966121
 C    -3.113529    -4.391889    -1.543511
 H    -3.202005    -4.524513    -0.454407
 H    -3.718107    -5.167175    -2.034572
 H    -2.059127    -4.568200    -1.814987
 C    -4.546874    -1.497855    -3.562007
 H    -5.098579    -1.341771    -4.492207
 C    -4.230066    -2.793125    -3.154251
 H    -4.527906    -3.645642    -3.769655
 C    -2.133167     0.254996     2.077171
 C    -3.468085    -0.114936     2.220727
 H    -3.934266    -0.728839     1.447220
 C    -1.503325     1.050750     3.034767
 H    -0.460522     1.335174     2.888037
 C    -4.204739     0.307976     3.333543
 C    -5.637233    -0.112080     3.494353
 H    -6.184759    -0.044655     2.542298
 H    -5.705050    -1.159283     3.832771
 H    -6.158920     0.509575     4.235531
 C    -2.232351     1.472656     4.141510
 H    -1.752423     2.100694     4.895837
 C    -3.570367     1.108323     4.289683
 H    -4.133561     1.451907     5.161276
 C     2.715958    -2.968999     0.428324
 H     3.668098    -2.446867     0.324638
 C     0.309528    -3.003328     0.174406
 H    -0.608204    -2.498888    -0.130456
 C     2.682239    -4.262308     0.936089
 H     3.591993    -4.782001     1.241280
 C     0.264096    -4.296890     0.682197
 H    -0.676070    -4.841216     0.784618
 C     1.455025    -4.906057     1.059781
 F     1.422051    -6.142269     1.548214
 C     3.500066     0.565055    -1.742157
 C     3.340013     1.856959    -1.239485
 H     2.879762     1.990965    -0.258318
 C     4.090629     0.357369    -2.988376
 H     4.195809    -0.662737    -3.360817
 C     3.746249     2.968798    -1.986740
 C     3.510402     4.352701    -1.454730
 H     2.437415     4.606142    -1.487889
 H     3.831419     4.439550    -0.405469
 H     4.048701     5.109876    -2.041289
 C     4.514635     1.459187    -3.724244
 H     4.979154     1.307562    -4.701532
 C     4.339090     2.754173    -3.234453
 H     4.666316     3.610009    -3.830071
 C     2.242808    -0.207948     2.006399
 C     3.603466     0.053210     2.147957
 H     4.123271     0.606355     1.362649
 C     1.544566    -0.926834     2.976106
 H     0.483160    -1.128037     2.826737
 C     4.298448    -0.403856     3.273907
 C     5.759300    -0.098290     3.437674
 H     6.293279    -0.157282     2.477660
 H     5.906271     0.922346     3.828612
 H     6.239746    -0.792489     4.141539
 C     2.232792    -1.383651     4.095183
 H     1.699719    -1.954054     4.859450
 C     3.595682    -1.128165     4.243023
 H     4.125028    -1.498830     5.124673
