 100
scf done:    -4182.841415
 C    -0.059477     3.284544    -0.299400
 H    -0.952690     3.787188     0.090010
 H     0.866834     3.832756    -0.093601
 C    -0.180053     2.715674    -1.654885
 H    -1.109360     2.979409    -2.178280
 H     0.698091     2.865082    -2.297058
 H    -0.309534     1.520693    -1.676720
Co     0.012226     1.338795     0.028032
 C     1.785714    -1.075045    -1.757789
 O     3.089194     1.023915    -0.998169
 O     2.349447    -0.621852     0.860890
 C    -1.774197    -1.029417     1.723585
 O    -3.140538     1.006853     0.891683
 O    -2.339233    -0.655080    -0.910459
 P    -1.732685     0.217876     0.406638
 P     1.723168     0.197512    -0.465451
 C     0.390371     1.797506     1.622494
 O     0.632718     2.128835     2.700087
 C     0.590898    -1.719332    -2.088774
 H    -0.348374    -1.394548    -1.634306
 C     2.974853    -1.477704    -2.383349
 H     3.910104    -0.970209    -2.142366
 C     0.587940    -2.766337    -3.009187
 H    -0.356892    -3.258713    -3.255940
 C     2.960474    -2.521065    -3.298621
 H     3.896300    -2.831322    -3.772234
 C     1.769778    -3.188933    -3.623742
 C     1.775792    -4.315905    -4.613773
 H     2.102144    -3.968578    -5.607227
 H     2.473928    -5.110292    -4.305919
 H     0.778171    -4.763063    -4.723563
 C     3.397240     2.257319    -0.497883
 C     3.434570     2.498441     0.874430
 H     3.222459     1.682118     1.567577
 C     3.669926     3.282207    -1.406010
 H     3.638906     3.063484    -2.474989
 C     3.706873     3.781287     1.364959
 C     3.694256     4.027189     2.844993
 H     2.734729     3.707905     3.280334
 H     4.486084     3.450629     3.349531
 H     3.847218     5.089631     3.079714
 C     3.962685     4.552795    -0.922124
 H     4.174678     5.362459    -1.624741
 C     3.970898     4.805524     0.450507
 H     4.184714     5.812476     0.817506
 C     3.354476    -1.550127     0.768899
 C     4.684829    -1.137980     0.768702
 H     4.908358    -0.070753     0.828046
 C     3.024331    -2.903149     0.688661
 H     1.973474    -3.197735     0.674181
 C     5.717601    -2.078330     0.679325
 C     7.150389    -1.630136     0.701042
 H     7.297623    -0.726060     0.091565
 H     7.469744    -1.384063     1.727323
 H     7.823592    -2.412843     0.323877
 C     4.048047    -3.840551     0.600668
 H     3.802575    -4.902804     0.528496
 C     5.381816    -3.433839     0.591649
 H     6.176906    -4.180100     0.515076
 C    -0.568891    -1.630415     2.095091
 H     0.370483    -1.288280     1.655589
 C    -2.964388    -1.454547     2.330712
 H    -3.908889    -0.981094     2.058890
 C    -0.556127    -2.655865     3.038422
 H     0.397302    -3.113192     3.317445
 C    -2.940226    -2.477316     3.269433
 H    -3.877393    -2.805335     3.728096
 C    -1.738480    -3.100305     3.637075
 C    -1.729455    -4.194368     4.663400
 H    -1.943612    -3.792958     5.667542
 H    -2.499585    -4.950948     4.448011
 H    -0.754453    -4.699342     4.707367
 C    -3.481543     2.208759     0.349092
 C    -3.513798     2.401192    -1.035102
 H    -3.256720     1.567277    -1.692330
 C    -3.818764     3.249318     1.213864
 H    -3.782177     3.072806     2.289976
 C    -3.864125     3.643581    -1.573209
 C    -3.855012     3.860605    -3.059248
 H    -3.850874     2.907403    -3.606568
 H    -4.730781     4.440541    -3.386836
 H    -2.960371     4.426526    -3.369477
 C    -4.181012     4.482951     0.680331
 H    -4.445620     5.303145     1.352191
 C    -4.199519     4.683867    -0.698667
 H    -4.480630     5.659700    -1.103104
 C    -3.334360    -1.591310    -0.809174
 C    -4.670887    -1.199249    -0.843939
 H    -4.909381    -0.137591    -0.935089
 C    -2.990309    -2.938187    -0.684100
 H    -1.936635    -3.219411    -0.639142
 C    -5.692856    -2.150422    -0.745846
 C    -7.130689    -1.721566    -0.803108
 H    -7.299624    -0.804824    -0.218650
 H    -7.435965    -1.505068    -1.840320
 H    -7.800326    -2.503326    -0.417699
 C    -4.002907    -3.886699    -0.588050
 H    -3.744607    -4.942894    -0.480130
 C    -5.341911    -3.498450    -0.614474
 H    -6.128564    -4.252787    -0.530261
