  50
scf done:    -3798.920070
 C     4.363675     0.080624    -0.831590
 H     4.849392    -0.576843    -1.562481
 H     4.565405     1.129201    -1.096146
 C     4.641625    -0.256523     0.597795
 H     5.262909    -1.149279     0.752014
 H     5.045919     0.575730     1.194175
 H     3.659520    -0.501666     1.184630
Co     2.596536    -0.439625    -0.202726
 C     0.047811     1.835606    -0.215328
 C     2.562208     2.892684     0.668867
 C     2.111504     2.313703    -2.062675
 C    -0.613631    -1.439748     0.672736
 C     1.529829    -2.937401     1.759173
 C     1.002848    -0.339037     2.779903
 P     1.134679    -1.236578     1.184634
 P     1.855153     1.568840    -0.398988
 C     2.382174    -1.583565    -1.456460
 O     2.193208    -2.268833    -2.374316
 C    -0.801091     1.222316    -1.149770
 H    -0.373982     0.622273    -1.957447
 C    -0.533446     2.561321     0.829623
 H     0.092541     3.062555     1.571220
 C    -2.181557     1.339556    -1.058793
 H    -2.836627     0.854261    -1.783614
 C    -1.919357     2.667142     0.950033
 H    -2.369088     3.225376     1.772923
 C    -2.734496     2.054605     0.003568
Cl    -4.457078     2.143156     0.166385
 H     2.400135     2.648037     1.728743
 H     3.649410     2.909911     0.498260
 H     2.153050     3.891787     0.453018
 H     1.683148     3.324991    -2.129553
 H     3.189322     2.350360    -2.273387
 H     1.648107     1.666427    -2.819733
 C    -0.878315    -2.090000    -0.541380
 H    -0.055340    -2.458151    -1.158322
 C    -1.692025    -0.963470     1.424677
 H    -1.525875    -0.439684     2.366928
 C    -2.181624    -2.255741    -0.995098
 H    -2.383634    -2.755425    -1.943889
 C    -3.002347    -1.114079     0.977373
 H    -3.838925    -0.709386     1.548338
 C    -3.238607    -1.753935    -0.235611
Cl    -4.859088    -1.893635    -0.828367
 H     1.516378    -3.611218     0.890881
 H     2.547695    -2.945035     2.176918
 H     0.813016    -3.295720     2.513354
 H     0.607237     0.670786     2.600243
 H     0.367367    -0.856938     3.513906
 H     2.017064    -0.241961     3.193906
