  84
scf done:    -3724.898880
 C    -0.660138    -0.624750    -3.168167
 H    -0.418228    -1.505641    -3.775199
 H    -1.719536    -0.360336    -3.285754
 C     0.293886     0.508377    -3.304343
 H     1.226183     0.280717    -3.837442
 H    -0.146884     1.435525    -3.702975
 H     0.646056     0.895525    -2.255859
Co     0.075643    -0.514160    -1.369684
 C    -2.083133     1.601388     0.514047
 C    -3.371572    -0.395330    -1.096716
 C    -2.053122    -1.207833     1.171352
 C     2.387733    -1.163008     1.173144
 C     3.282852     0.022640    -1.316938
 C     2.004547     1.638114     0.636208
 P     1.836985    -0.009612    -0.154429
 P    -1.763642    -0.053843    -0.248708
 C     0.389458    -2.188622    -1.446422
 O     0.519897    -3.337558    -1.524753
 C    -2.055327     1.780401     1.903755
 H    -1.942815     0.912736     2.554600
 C    -2.223976     2.739638    -0.315569
 C    -2.227171     2.635125    -1.811813
 H    -3.228154     2.392515    -2.202132
 H    -1.559937     1.829348    -2.146747
 H    -1.902698     3.577324    -2.275769
 C    -2.169695     3.043405     2.478354
 H    -2.136362     3.149293     3.565153
 C    -2.356381     3.997967     0.281284
 H    -2.472221     4.873641    -0.364191
 C    -2.329560     4.159864     1.663908
 H    -2.426305     5.156572     2.101039
 C    -3.461797    -1.584390    -1.832389
 C    -4.509825     0.407483    -0.970234
 C    -5.787301    -1.142591    -2.315316
 C    -5.708784     0.038573    -1.580843
 C    -4.660732    -1.956849    -2.433428
 H    -2.580327    -2.224114    -1.924035
 H    -4.714670    -2.889565    -3.000158
 H    -6.727005    -1.431776    -2.792098
 H    -6.588639     0.678174    -1.474373
 H    -4.465629     1.326022    -0.379382
 C    -1.096800    -2.172677     1.487909
 C    -3.255534    -1.186407     1.894217
 C    -2.505603    -3.045990     3.242497
 C    -3.476316    -2.092248     2.926447
 C    -1.318080    -3.086863     2.518092
 H    -0.164766    -2.201765     0.925199
 H    -0.550488    -3.829197     2.749335
 H    -2.683603    -3.761766     4.049004
 H    -4.416609    -2.061492     3.482456
 H    -4.028957    -0.456844     1.642385
 C     3.316516    -2.164496     0.859001
 H     3.764086    -2.192143    -0.135542
 C     1.811787    -1.130148     2.463269
 C     0.814184    -0.097091     2.896581
 H     0.240464     0.305946     2.053831
 H     1.311636     0.760647     3.376634
 H     0.102633    -0.528902     3.614123
 C     3.684255    -3.127767     1.792546
 H     4.408204    -3.898981     1.520278
 C     2.200198    -2.109106     3.386453
 H     1.751092    -2.090105     4.383377
 C     3.122539    -3.099630     3.066044
 H     3.398679    -3.850859     3.809913
 C     3.375846    -0.962845    -2.311888
 C     4.262088     1.022476    -1.276687
 C     5.404766     0.034496    -3.165209
 C     5.311715     1.028823    -2.194864
 C     4.433446    -0.964361    -3.218025
 H     2.610164    -1.737669    -2.376835
 H     4.490526    -1.747997    -3.977381
 H     6.228206     0.040680    -3.883427
 H     6.061256     1.822669    -2.148535
 H     4.205531     1.814364    -0.528949
 C     1.147019     2.659003     0.222927
 C     2.968256     1.908516     1.616996
 C     2.201499     4.196023     1.754404
 C     3.065241     3.181639     2.172276
 C     1.243353     3.933730     0.778149
 H     0.382648     2.440230    -0.524778
 H     0.552851     4.715527     0.455605
 H     2.273961     5.192233     2.197553
 H     3.816930     3.383499     2.939404
 H     3.639026     1.112507     1.952134
