 100
scf done:    -4182.845140
 C    -0.257580     1.434630    -3.406319
 H    -0.271088     1.057425    -4.435089
 H    -1.180249     1.996189    -3.204907
 C     1.002323     2.114293    -2.985719
 H     1.789591     2.146436    -3.751189
 H     0.852688     3.114944    -2.554998
 H     1.527584     1.566951    -2.093477
Co     0.425982     0.203215    -2.045323
 C    -1.110628     2.606334    -0.338346
 O    -2.739843     0.891298    -1.353376
 O    -1.354188     0.014064     0.622586
 C     1.051201    -2.416788     0.001085
 O     3.148084    -1.132872    -0.660251
 O     1.565219     0.221532     0.829703
 P     1.530648    -0.750590    -0.521078
 P    -1.161456     0.846949    -0.814036
 C     0.475239    -1.098535    -3.181926
 O     0.385783    -1.970395    -3.932797
 C     0.099299     3.081959     0.185333
 H     0.941879     2.394725     0.297696
 C    -2.186150     3.487869    -0.472735
 H    -3.130377     3.121300    -0.876184
 C     0.215682     4.405538     0.592526
 H     1.161128     4.757167     1.015740
 C    -2.054586     4.816145    -0.075641
 H    -2.905690     5.494538    -0.182415
 C    -0.857994     5.298366     0.466621
 C    -0.713766     6.734931     0.873092
 H    -0.241424     7.322991     0.068410
 H    -1.689093     7.194685     1.086551
 H    -0.079555     6.839099     1.765688
 C    -3.497371    -0.210129    -1.645308
 C    -3.008805    -1.252458    -2.431052
 H    -2.003223    -1.177083    -2.842310
 C    -4.803481    -0.229529    -1.128103
 C    -5.318689     0.924791    -0.324840
 H    -4.642568     1.168761     0.508023
 H    -5.403918     1.830260    -0.947422
 H    -6.311123     0.701861     0.089347
 C    -3.810911    -2.365746    -2.676849
 H    -3.420284    -3.182955    -3.287736
 C    -5.585372    -1.355848    -1.397344
 H    -6.601466    -1.393887    -0.995025
 C    -5.099600    -2.423352    -2.152405
 H    -5.733428    -3.293177    -2.338704
 C    -2.273604     0.253221     1.617194
 C    -2.276065     1.457641     2.322227
 H    -1.537536     2.220501     2.084312
 C    -3.162636    -0.782989     1.952750
 C    -3.093848    -2.118644     1.282451
 H    -3.967467    -2.730506     1.544320
 H    -3.051309    -2.030581     0.188893
 H    -2.188662    -2.663807     1.592523
 C    -3.211686     1.673141     3.331051
 H    -3.209551     2.622625     3.871098
 C    -4.089260    -0.536622     2.970990
 H    -4.794481    -1.329967     3.233409
 C    -4.132207     0.678860     3.649823
 H    -4.872753     0.841008     4.436194
 C     1.893176    -3.234477     0.768805
 H     2.866984    -2.861977     1.089148
 C    -0.183962    -2.912253    -0.416412
 H    -0.841499    -2.278650    -1.013315
 C     1.486394    -4.513384     1.120909
 H     2.147027    -5.138388     1.728145
 C    -0.578556    -4.201447    -0.068108
 H    -1.550434    -4.571207    -0.405707
 C     0.244965    -5.021858     0.707140
 C    -0.167065    -6.417201     1.070721
 H    -1.236127    -6.585395     0.880399
 H     0.397723    -7.157617     0.480543
 H     0.032642    -6.630271     2.131815
 C     4.141826    -0.293000    -1.078657
 C     4.055403     0.390065    -2.290369
 H     3.168041     0.249087    -2.908053
 C     5.285028    -0.204430    -0.267245
 C     5.386813    -1.017670     0.986726
 H     4.529605    -0.849342     1.656415
 H     5.398898    -2.094344     0.752661
 H     6.306261    -0.777643     1.537659
 C     5.098218     1.222711    -2.689827
 H     5.027290     1.759895    -3.638567
 C     6.317101     0.635566    -0.695768
 H     7.213434     0.721052    -0.075237
 C     6.228736     1.354508    -1.887009
 H     7.050539     2.005187    -2.193869
 C     1.733054    -0.051256     2.159254
 C     0.906658    -0.958086     2.823121
 H     0.124229    -1.470605     2.265749
 C     2.700188     0.699001     2.848810
 C     3.483431     1.765987     2.145868
 H     4.345230     2.084169     2.748541
 H     3.847147     1.437635     1.162517
 H     2.852871     2.653528     1.968959
 C     1.079449    -1.176062     4.186930
 H     0.430876    -1.887227     4.703286
 C     2.852724     0.454180     4.217279
 H     3.606944     1.022166     4.769076
 C     2.063462    -0.479871     4.885240
 H     2.205598    -0.649352     5.954853
