  62
scf done:    -3956.043318
 C    -4.087344     1.006722    -0.018875
 H    -4.936677     0.569831     0.520234
 H    -4.057619     2.089413     0.160385
 C    -3.988708     0.601085    -1.453428
 H    -4.761743    -0.103445    -1.790272
 H    -3.929223     1.442868    -2.160075
 H    -2.987446     0.039724    -1.683817
Co    -2.442421    -0.031797    -0.020922
 C     0.632854     1.628234    -0.326464
 C    -1.609069     3.300020    -0.585085
 C    -0.951087     2.155787     1.989923
 C     0.550333    -1.653811     0.216565
 C    -1.723468    -3.302785    -0.281759
 C    -0.653148    -1.695427    -2.435707
 P    -1.073756    -1.606975    -0.634800
 P    -1.127176     1.687734     0.208959
 C    -2.906929    -0.834594     1.402903
 O    -3.158973    -1.298384     2.438571
 C     1.719983     1.628771     0.554154
 H     1.560731     1.693831     1.630941
 C     0.899620     1.530980    -1.700106
 H     0.068542     1.525044    -2.411981
 C     3.028202     1.516509     0.088597
 H     3.865970     1.481376     0.787082
 C     2.199233     1.429299    -2.183989
 H     2.397683     1.350857    -3.254412
 C     3.260290     1.409660    -1.278733
Cl     4.880176     1.200271    -1.860087
 H    -2.675434     3.455006    -0.356327
 C    -0.790217     4.524979    -0.217454
 H     0.282140     4.366720    -0.410524
 H    -0.903604     4.786708     0.845389
 H    -1.567993     3.112669    -1.671145
 H    -1.109418     5.401265    -0.803311
 H    -0.220248     2.974785     2.090232
 C    -2.270522     2.522703     2.649185
 H    -2.995159     1.701275     2.564107
 H    -2.721924     3.416695     2.190914
 H    -0.518413     1.271164     2.485295
 H    -2.121743     2.740504     3.717658
 C     0.544183    -1.596250     1.618619
 H    -0.405389    -1.566876     2.159854
 C     1.783142    -1.667427    -0.442684
 H     1.832992    -1.681295    -1.531686
 C     1.731949    -1.554270     2.341012
 H     1.722614    -1.502026     3.430984
 C     2.980425    -1.620035     0.266812
 H     3.937079    -1.594800    -0.257427
 C     2.946798    -1.556527     1.656173
Cl     4.431156    -1.426505     2.540886
 H    -1.814371    -3.357150     0.814798
 C    -3.077719    -3.531790    -0.933080
 H    -3.006197    -3.561448    -2.031986
 H    -3.765537    -2.714627    -0.664339
 H    -0.981927    -4.060104    -0.581450
 H    -3.523103    -4.482468    -0.603745
 H     0.036815    -0.856506    -2.619753
 C    -0.102050    -3.005019    -2.981804
 H    -0.854972    -3.805624    -2.946342
 H     0.775977    -3.359149    -2.422494
 H    -1.584187    -1.427045    -2.960852
 H     0.199763    -2.887876    -4.034246
