  80
scf done:    -3272.800896
 C    -1.199585    -3.284046    -1.132132
 H    -1.092849    -4.308172    -0.754124
 H    -2.247060    -3.094673    -1.398967
 C    -0.215739    -2.909245    -2.192463
 H     0.532361    -3.679239    -2.427370
 H    -0.667672    -2.548384    -3.129641
 H     0.429552    -1.986323    -1.880456
Co    -0.172113    -1.895838    -0.237501
 C    -1.326088     1.093956    -1.399567
 C    -3.405405    -0.776947    -0.815857
 C    -1.986712     0.480607     1.343870
 C     1.473709     0.541983     1.498475
 C     3.086940    -1.622783     0.566504
 C     2.134207     0.356279    -1.323705
 P     1.580074    -0.654547     0.116409
 P    -1.687350    -0.326102    -0.288570
 C     0.019837    -2.830545     1.173302
 O     0.073331    -3.409038     2.180085
 C    -0.960315     2.367851    -0.951398
 H    -1.016096     2.614652     0.109617
 C    -1.223433     0.836417    -2.776737
 H    -1.481735    -0.154747    -3.160805
 C    -0.488146     3.334971    -1.840379
 H    -0.200623     4.318447    -1.456679
 C    -0.766109     1.805027    -3.660528
 H    -0.695454     1.570049    -4.726634
 C    -0.373058     3.073355    -3.207645
 C     0.173406     4.095760    -4.160132
 H     1.189508     3.823300    -4.491214
 H    -0.449057     4.177823    -5.064265
 H     0.231719     5.090007    -3.695175
 H    -4.008266     0.137408    -0.940576
 H    -3.318739    -1.234265    -1.816315
 C    -4.073516    -1.754810     0.144728
 H    -4.290743    -1.242521     1.096792
 H    -3.360710    -2.557464     0.395192
 C    -5.355932    -2.349222    -0.415537
 H    -6.089318    -1.564815    -0.663197
 H    -5.158187    -2.919181    -1.337790
 H    -5.829619    -3.035156     0.303260
 H    -2.084593    -0.351291     2.060657
 H    -1.039112     0.969500     1.616771
 C    -3.150236     1.455382     1.480961
 H    -4.105595     0.911471     1.402234
 H    -3.148905     2.172282     0.643380
 C    -3.101940     2.212430     2.800544
 H    -3.117706     1.519442     3.657103
 H    -2.176444     2.806069     2.880246
 H    -3.955194     2.899628     2.908242
 C     1.227403     0.040033     2.786608
 H     1.181891    -1.039302     2.953193
 C     1.481511     1.928941     1.323549
 H     1.657121     2.360447     0.337307
 C     0.991255     0.898247     3.852655
 H     0.793927     0.478714     4.843177
 C     1.232437     2.785305     2.396545
 H     1.235031     3.866360     2.229886
 C     0.975481     2.289405     3.677190
 C     0.665255     3.204234     4.824826
 H     0.878783     4.253082     4.575499
 H    -0.399739     3.136949     5.102489
 H     1.249081     2.939051     5.719415
 H     3.938884    -0.942784     0.732447
 H     2.858632    -2.098406     1.534699
 C     3.406321    -2.692724    -0.468056
 H     3.656944    -2.215756    -1.432317
 H     2.486231    -3.275467    -0.646094
 C     4.539286    -3.612885    -0.043732
 H     5.471791    -3.051526     0.128277
 H     4.291250    -4.137415     0.892599
 H     4.745517    -4.376534    -0.809159
 H     2.054068    -0.309130    -2.199585
 H     1.348709     1.113566    -1.479779
 C     3.515278     0.997945    -1.276033
 H     4.289031     0.213493    -1.317967
 H     3.664917     1.511119    -0.311701
 C     3.721871     1.982904    -2.417591
 H     3.596689     1.490682    -3.395459
 H     2.985926     2.802043    -2.369526
 H     4.727481     2.429670    -2.393009
