  96
scf done:    -3882.015856
 C    -1.027746     1.070184    -2.876378
 H    -0.783624     0.822393    -3.916887
 H    -2.115454     1.162543    -2.762750
 C    -0.246148     2.198216    -2.297245
 H     0.553187     2.587615    -2.942436
 H    -0.859854     3.026846    -1.912676
 H     0.301192     1.883055    -1.315032
Co    -0.011985     0.160641    -1.482630
 C    -2.562070     1.701259    -0.015420
 C    -3.153544    -1.115121    -0.832526
 C    -1.702072    -0.618090     1.540110
 C     2.249496    -1.661760     0.524977
 C     3.360318     0.313527    -1.158972
 C     1.755133     1.321961     1.104612
 P     1.805500     0.010092    -0.191238
 P    -1.827784     0.010867    -0.195758
 C     0.352695    -1.054890    -2.614837
 O     0.496403    -1.879621    -3.420804
 C    -1.729420     2.567438     0.718025
 H    -0.813697     2.172423     1.162176
 C    -3.694994     2.242248    -0.666161
 C    -4.647445     1.474579    -1.541640
 H    -5.340531     0.856793    -0.951615
 H    -4.138850     0.793009    -2.233944
 H    -5.252444     2.174463    -2.134333
 C    -2.017567     3.915033     0.881812
 H    -1.343235     4.543627     1.467672
 C    -3.958130     3.612810    -0.495741
 H    -4.832322     4.033865    -0.999892
 C    -3.152382     4.444328     0.271088
 H    -3.398934     5.503928     0.372524
 C    -2.897037    -1.738085    -2.058975
 H    -1.967708    -1.500985    -2.575469
 C    -4.350257    -1.416598    -0.142010
 C    -4.745307    -0.793776     1.165487
 H    -4.453636     0.263283     1.228571
 H    -4.266258    -1.305597     2.014110
 H    -5.833812    -0.860428     1.305046
 C    -3.788221    -2.648086    -2.618768
 H    -3.556665    -3.116390    -3.578027
 C    -5.231487    -2.338296    -0.721490
 H    -6.161961    -2.570432    -0.195616
 C    -4.964140    -2.953311    -1.941274
 H    -5.678126    -3.666805    -2.360213
 C    -2.048090     0.146032     2.661992
 H    -2.486267     1.135769     2.526714
 C    -1.175481    -1.917683     1.730472
 C    -0.877014    -2.835859     0.586963
 H    -0.460643    -2.280163    -0.266317
 H    -1.798440    -3.324989     0.231687
 H    -0.159534    -3.613353     0.881267
 C    -1.844989    -0.327422     3.954181
 H    -2.127980     0.291300     4.809402
 C    -0.956591    -2.365607     3.039836
 H    -0.522815    -3.359244     3.181591
 C    -1.277269    -1.585238     4.146941
 H    -1.096407    -1.964134     5.155844
 C     2.286436    -2.589967    -0.534601
 H     2.108866    -2.241325    -1.552118
 C     2.540447    -2.129283     1.827947
 C     2.696479    -1.308287     3.078918
 H     1.756696    -1.267612     3.651699
 H     3.011242    -0.279257     2.888995
 H     3.449533    -1.778361     3.727736
 C     2.536358    -3.939933    -0.346201
 H     2.551056    -4.613070    -1.205848
 C     2.758493    -3.509803     1.996619
 H     2.970357    -3.870197     3.007283
 C     2.749055    -4.414184     0.945541
 H     2.930147    -5.475467     1.131388
 C     3.202764     0.528475    -2.531992
 H     2.186757     0.517481    -2.934336
 C     4.658490     0.334684    -0.600883
 C     4.925959     0.138992     0.859614
 H     4.741805    -0.904097     1.157873
 H     4.276266     0.775039     1.478846
 H     5.969979     0.381627     1.100011
 C     4.292684     0.757861    -3.366418
 H     4.136833     0.922313    -4.435037
 C     5.741817     0.566625    -1.456712
 H     6.748359     0.587529    -1.029768
 C     5.572821     0.774909    -2.823364
 H     6.443712     0.952646    -3.459121
 C     1.045685     1.010227     2.272259
 H     0.635324     0.009610     2.391703
 C     2.181939     2.658631     0.904751
 C     2.860517     3.167163    -0.335776
 H     2.365812     2.821812    -1.251921
 H     3.906049     2.832794    -0.405382
 H     2.855441     4.265712    -0.339629
 C     0.823168     1.945942     3.275685
 H     0.271576     1.653094     4.170687
 C     1.935861     3.587304     1.926429
 H     2.268353     4.617881     1.775571
 C     1.283921     3.247235     3.107017
 H     1.118460     4.002418     3.879022
