  94
scf done:    -5023.194625
 C    -0.398363    -3.534235     1.369073
 H     0.172458    -4.036472     2.158299
 H    -1.465239    -3.513501     1.614233
 C    -0.070191    -3.963973    -0.018264
 H     0.685757    -4.757990    -0.086197
 H    -0.949302    -4.213048    -0.628973
 H     0.428683    -3.114218    -0.649810
Co     0.379473    -1.905479     0.615527
 C    -2.027385     0.490105    -0.432679
 O    -2.723849    -2.012370     0.312826
 O    -1.886061    -0.312751     2.110296
 C     2.645153     0.577206     0.287540
 O     3.127289    -1.908089    -0.670365
 O     1.800079    -0.404387    -2.106212
 P     1.856385    -0.869680    -0.501491
 P    -1.496684    -0.923752     0.595835
 C     1.274533    -1.822445     2.072812
 O     1.789535    -1.794233     3.106327
 C    -1.157153     1.582084    -0.494785
 H    -0.209151     1.547919     0.045929
 C    -3.247555     0.558915    -1.109331
 H    -3.960373    -0.263284    -1.052957
 C    -1.483603     2.721350    -1.216917
 H    -0.803597     3.572529    -1.264394
 C    -3.583744     1.688811    -1.849815
 H    -4.530965     1.742028    -2.388568
 C    -2.696674     2.760680    -1.901767
Cl    -3.089414     4.150877    -2.854723
 C    -4.052192    -2.081894     0.617209
 C    -4.542000    -1.792722     1.890944
 H    -3.847020    -1.478915     2.668869
 C    -4.899898    -2.553102    -0.402236
 C    -4.329183    -2.946908    -1.730776
 H    -5.120145    -3.277305    -2.417414
 H    -3.780211    -2.118443    -2.205494
 H    -3.603294    -3.767849    -1.616900
 C    -5.907086    -1.915046     2.145331
 H    -6.288944    -1.680358     3.141664
 C    -6.261923    -2.666784    -0.114344
 H    -6.934328    -3.027448    -0.897686
 C    -6.772530    -2.341653     1.141795
 H    -7.842372    -2.437824     1.338633
 C    -2.193078     0.997865     2.393086
 C    -3.478330     1.486990     2.168090
 H    -4.238101     0.821119     1.757054
 C    -1.179032     1.818232     2.913626
 C     0.198783     1.278147     3.134992
 H     0.869346     2.051799     3.532516
 H     0.191098     0.425553     3.829999
 H     0.636878     0.898579     2.199204
 C    -3.773109     2.818094     2.452169
 H    -4.779327     3.200202     2.265893
 C    -1.504247     3.149070     3.193069
 H    -0.725675     3.803108     3.595331
 C    -2.783189     3.653220     2.963901
 H    -3.005059     4.699523     3.185600
 C     3.490963     0.371442     1.385595
 H     3.779810    -0.638921     1.676803
 C     2.304751     1.888220    -0.061526
 H     1.661234     2.078967    -0.920004
 C     3.969804     1.443933     2.127909
 H     4.625325     1.279934     2.984171
 C     2.770092     2.971024     0.678736
 H     2.493080     3.991922     0.411491
 C     3.593583     2.740416     1.778472
Cl     4.146074     4.076421     2.727182
 C     4.449236    -1.612683    -0.893198
 C     4.861535    -0.657665    -1.819481
 H     4.112143    -0.122819    -2.402158
 C     5.371148    -2.348940    -0.131747
 C     4.884743    -3.370448     0.850300
 H     5.725788    -3.860203     1.359192
 H     4.230865    -2.922603     1.616251
 H     4.279460    -4.142659     0.350610
 C     6.223146    -0.413050    -1.988486
 H     6.549027     0.337431    -2.712378
 C     6.728603    -2.085689    -0.328926
 H     7.462246    -2.647919     0.255313
 C     7.159172    -1.124828    -1.243285
 H     8.226925    -0.936127    -1.374225
 C     0.878028     0.272307    -2.860268
 C     1.218981     1.556186    -3.294086
 H     2.186143     1.967205    -2.999671
 C    -0.305337    -0.343085    -3.297461
 C    -0.622083    -1.766462    -2.963863
 H     0.289150    -2.382880    -2.970732
 H    -1.064822    -1.861815    -1.961038
 H    -1.334175    -2.184819    -3.688373
 C     0.349073     2.282851    -4.100176
 H     0.619611     3.290344    -4.423927
 C    -1.165527     0.415428    -4.099975
 H    -2.098436    -0.044393    -4.436823
 C    -0.861357     1.715928    -4.490326
 H    -1.564286     2.282267    -5.104046
