  78
scf done:    -4413.973191
 C     1.642194     0.323337     2.897147
 H     1.370280     0.261128     3.957628
 H     2.485589    -0.347970     2.684364
 C     1.797595     1.707249     2.364929
 H     1.622271     2.508053     3.096286
 H     2.743823     1.880218     1.831671
 H     1.018597     1.949583     1.522050
Co     0.156102     0.431508     1.631343
 C     2.835252    -0.515731    -0.144605
 O     1.540095    -2.428151     1.053969
 O     0.409942    -1.386719    -1.002369
 C    -2.738468     0.332704    -0.185577
 O    -1.958275     2.673317     0.573631
 O    -0.495902     1.577285    -1.206914
 P    -1.214582     1.238724     0.236173
 P     1.153950    -0.958573     0.410496
 C    -1.011554    -0.067589     2.800648
 O    -1.748990    -0.545855     3.550440
 C     2.955594     0.699284    -0.833903
 H     2.056004     1.291960    -1.032319
 C     3.978976    -1.273098     0.116958
 H     3.880004    -2.213926     0.661611
 C     4.196250     1.140791    -1.278664
 H     4.299208     2.079917    -1.824848
 C     5.229467    -0.836162    -0.316768
 H     6.129684    -1.420055    -0.117485
 C     5.328159     0.366070    -1.014719
Cl     6.878987     0.914149    -1.557463
 C     0.584651    -3.140593     1.849347
 H    -0.387870    -2.619721     1.784747
 C     1.036273    -3.140877     3.294388
 H     1.086606    -2.115933     3.682024
 H     2.032547    -3.601773     3.381974
 H     0.330868    -3.710734     3.917226
 C     0.448977    -4.537570     1.278191
 H     0.105907    -4.508722     0.234641
 H     1.419151    -5.057423     1.306265
 H    -0.274759    -5.124589     1.862951
 C     0.890896    -2.399542    -1.892306
 H     1.558209    -3.072950    -1.326157
 C     1.659604    -1.777384    -3.042912
 H     2.548360    -1.239275    -2.689512
 H     1.019444    -1.068444    -3.588876
 H     1.988043    -2.558217    -3.745393
 C    -0.319589    -3.178346    -2.369147
 H    -0.858243    -3.628345    -1.522525
 H    -1.016669    -2.510570    -2.898290
 H    -0.019227    -3.984302    -3.055100
 C    -3.969261     0.973132    -0.368962
 H    -4.037497     2.052280    -0.223884
 C    -2.664196    -1.057224    -0.329963
 H    -1.704628    -1.556809    -0.192255
 C    -5.101847     0.243176    -0.717532
 H    -6.064757     0.735986    -0.861299
 C    -3.787862    -1.796187    -0.682560
 H    -3.731604    -2.879085    -0.804680
 C    -5.002052    -1.138362    -0.877867
Cl    -6.406173    -2.050423    -1.316670
 C    -1.211820     3.775774     1.091543
 H    -0.153510     3.662520     0.787368
 C    -1.302373     3.781673     2.604111
 H    -0.915473     2.833816     3.004497
 H    -2.351374     3.887239     2.919786
 H    -0.720837     4.613630     3.029161
 C    -1.765533     5.032475     0.453189
 H    -1.681665     4.985898    -0.642159
 H    -2.828601     5.152654     0.712461
 H    -1.220726     5.920086     0.807539
 C    -1.198854     2.099408    -2.338299
 H    -2.149568     2.542491    -1.991762
 C    -1.488337     0.977248    -3.315148
 H    -2.108047     0.200012    -2.847638
 H    -0.546934     0.514090    -3.645214
 H    -2.020155     1.361192    -4.198631
 C    -0.336021     3.193188    -2.933929
 H    -0.135856     3.979096    -2.191255
 H     0.629218     2.778419    -3.263678
 H    -0.830600     3.652167    -3.802951
