 108
scf done:    -4039.184147
 C     0.506745    -0.847846    -3.531821
 H     0.501194    -0.290959    -4.476729
 H     1.465271    -1.374544    -3.419815
 C    -0.699974    -1.703370    -3.307602
 H    -1.488460    -1.585534    -4.063230
 H    -0.489907    -2.776410    -3.175796
 H    -1.231508    -1.440156    -2.307845
Co    -0.271161    -0.006020    -1.952867
 C     2.506721    -1.802995    -0.793024
 C     2.859654     0.863279    -1.788335
 C     1.625064     0.366264     0.926959
 C    -1.640135     2.212274     0.216132
 C    -3.429917     0.423683    -1.233455
 C    -2.045075    -0.430217     1.166715
 P    -1.753493     0.493541    -0.423044
 P     1.593328    -0.205731    -0.869675
 C    -0.473825     1.440129    -2.852008
 O    -0.451133     2.412879    -3.484588
 C     1.850134    -2.981275    -1.157040
 H     0.816278    -2.928277    -1.502135
 C     3.836348    -1.897651    -0.356854
 H     4.378549    -1.000763    -0.052625
 C     2.488337    -4.217139    -1.074699
 H     1.948000    -5.123584    -1.361810
 C     4.470473    -3.131577    -0.273788
 H     5.501489    -3.178394     0.088126
 C     3.808804    -4.315298    -0.627594
 C     4.508951    -5.639309    -0.538639
 H     5.308727    -5.715211    -1.293396
 H     4.982018    -5.774935     0.446242
 H     3.815037    -6.475671    -0.702114
 H     3.508204     0.149131    -2.315170
 H     2.253111     1.365486    -2.553700
 C     3.685671     1.860317    -1.039876
 C     5.043748     1.617426    -0.803543
 H     5.488265     0.693669    -1.183111
 C     3.116047     3.071439    -0.588333
 C     1.695935     3.429784    -0.913710
 H     0.998674     2.589953    -0.783295
 H     1.598239     3.731233    -1.969737
 H     1.337983     4.261680    -0.292062
 C     5.834214     2.521611    -0.099527
 H     6.890527     2.304460     0.075053
 C     3.919148     3.962025     0.132784
 H     3.475215     4.893246     0.495824
 C     5.264064     3.695984     0.385182
 H     5.865939     4.411607     0.950332
 H     1.622147     1.463905     0.882871
 H     0.633858     0.071473     1.289489
 C     2.680578    -0.116188     1.873899
 C     3.804744     0.677095     2.128649
 H     3.878222     1.658226     1.657861
 C     2.556023    -1.360859     2.529211
 C     1.330310    -2.211221     2.371143
 H     1.099276    -2.415537     1.316735
 H     0.442701    -1.723603     2.808772
 H     1.452077    -3.178914     2.876175
 C     4.828320     0.237920     2.963301
 H     5.699373     0.875339     3.133000
 C     3.593286    -1.786585     3.364895
 H     3.501831    -2.755976     3.862694
 C     4.729701    -1.009159     3.574784
 H     5.527181    -1.371533     4.228212
 C    -1.915211     3.289360    -0.640125
 H    -2.246633     3.109198    -1.664301
 C    -1.194683     2.505240     1.509433
 H    -0.966943     1.705647     2.215260
 C    -1.757780     4.601456    -0.213328
 H    -1.983934     5.417184    -0.905644
 C    -1.025271     3.824323     1.928241
 H    -0.670715     4.019204     2.944076
 C    -1.301570     4.897524     1.078431
 C    -1.098329     6.317995     1.515318
 H    -0.915255     6.386263     2.596682
 H    -0.233064     6.767799     1.000875
 H    -1.973672     6.940831     1.275665
 H    -3.440423     1.292322    -1.911015
 H    -3.373359    -0.452141    -1.891025
 C    -4.663942     0.385901    -0.381697
 C    -4.980559     1.472260     0.445098
 H    -4.308461     2.333326     0.469752
 C    -5.533197    -0.725909    -0.421150
 C    -5.254669    -1.918451    -1.291066
 H    -4.282025    -2.377515    -1.055968
 H    -5.243999    -1.647989    -2.359539
 H    -6.024788    -2.688917    -1.151560
 C    -6.132763     1.477210     1.226927
 H    -6.356502     2.337213     1.862422
 C    -6.690704    -0.698859     0.365729
 H    -7.366937    -1.557469     0.333149
 C    -6.996150     0.385061     1.184501
 H    -7.906555     0.374765     1.788464
 H    -1.116898    -0.361315     1.755421
 H    -2.810471     0.128770     1.720124
 C    -2.430467    -1.874596     1.017403
 C    -1.694141    -2.702142     0.163828
 H    -0.853253    -2.259998    -0.374301
 C    -3.495867    -2.423167     1.761475
 C    -4.260476    -1.607794     2.762753
 H    -4.700891    -0.705678     2.313658
 H    -3.608083    -1.279261     3.588483
 H    -5.080797    -2.193633     3.198893
 C    -2.015947    -4.045532    -0.006621
 H    -1.423265    -4.668493    -0.681050
 C    -3.811414    -3.773715     1.572795
 H    -4.642999    -4.201370     2.139578
 C    -3.092577    -4.581961     0.694490
 H    -3.366960    -5.632268     0.570540
