  78
scf done:    -4962.048903
 C     0.928879     0.350575     3.569721
 H     0.702455    -0.243154     4.463696
 H     2.007510     0.532018     3.496535
 C     0.077297     1.558885     3.389599
 H    -0.685991     1.714832     4.165290
 H     0.631264     2.495778     3.229688
 H    -0.576898     1.490877     2.421052
Co    -0.026129    -0.094262     1.929587
 C     1.735159     1.615031    -0.440109
 C     3.379153     0.003992     1.269445
 C     1.876151    -1.282519    -0.646585
 C    -1.718445    -1.372936    -0.742166
 C    -3.325289    -0.202103     1.301646
 C    -1.938551     1.498165    -0.498048
 P    -1.677544    -0.027840     0.498110
 P     1.672597     0.084460     0.572221
 C    -0.422034    -1.642435     2.538379
 O    -0.600059    -2.725266     2.911639
 C     1.287661     1.684312    -1.764543
 H     1.033110     0.769000    -2.300480
 C     2.046969     2.818709     0.212833
 H     2.387367     2.799780     1.252211
 C     1.151335     2.904366    -2.421312
 H     0.785848     2.947697    -3.448428
 C     1.926681     4.044151    -0.432045
 H     2.172409     4.974656     0.082618
 C     1.466723     4.081244    -1.748922
Cl     1.241938     5.606322    -2.534866
 C     3.612356    -0.968921     2.251553
 H     2.775684    -1.570259     2.617315
 C     4.459165     0.761795     0.804805
 H     4.309372     1.514302     0.027698
 C     4.887675    -1.180290     2.763293
 H     5.080639    -1.935905     3.526858
 C     5.741055     0.568399     1.315871
 H     6.591391     1.155578     0.964270
 C     5.937984    -0.401554     2.290083
 F     7.160174    -0.590910     2.781310
 C     2.694987    -1.171351    -1.778372
 H     3.200085    -0.228476    -2.000603
 C     1.297050    -2.522148    -0.355579
 H     0.673124    -2.628904     0.532099
 C     2.890058    -2.255439    -2.628133
 H     3.518275    -2.180898    -3.517675
 C     1.503910    -3.622390    -1.182082
 H     1.049773    -4.591202    -0.969241
 C     2.286166    -3.470053    -2.318557
 F     2.472884    -4.509148    -3.126961
 C    -2.165037    -2.641719    -0.350835
 H    -2.582609    -2.790115     0.647973
 C    -1.173347    -1.219113    -2.021902
 H    -0.811772    -0.242382    -2.345666
 C    -2.068384    -3.729101    -1.212915
 H    -2.408204    -4.718628    -0.903228
 C    -1.075519    -2.296228    -2.895794
 H    -0.638396    -2.174464    -3.887772
 C    -1.516131    -3.550855    -2.480804
Cl    -1.338402    -4.909310    -3.535860
 C    -3.411084    -0.085171     2.691476
 H    -2.489455     0.050611     3.262638
 C    -4.498990    -0.411939     0.565283
 H    -4.454824    -0.522906    -0.520328
 C    -4.639681    -0.162623     3.343090
 H    -4.720797    -0.075432     4.427943
 C    -5.731724    -0.499473     1.200889
 H    -6.654635    -0.669539     0.643618
 C    -5.784896    -0.368689     2.585937
 F    -6.963040    -0.450548     3.196346
 C    -2.709770     1.530018    -1.668591
 H    -3.145036     0.611646    -2.067515
 C    -1.398032     2.699210    -0.025585
 H    -0.770900     2.693072     0.866589
 C    -2.924652     2.721935    -2.353163
 H    -3.516723     2.756399    -3.269449
 C    -1.619133     3.902577    -0.686648
 H    -1.188696     4.839979    -0.332039
 C    -2.376418     3.896969    -1.850185
 F    -2.579914     5.036720    -2.501408
