  88
scf done:    -4025.700974
 C    -1.445802     0.176631    -3.210659
 H    -1.422740    -0.490290    -4.080114
 H    -2.474548     0.419894    -2.924027
 C    -0.522035     1.342307    -3.279765
 H     0.097507     1.393495    -4.185259
 H    -1.001128     2.315161    -3.097817
 H     0.285385     1.330619    -2.430692
Co    -0.200598    -0.208265    -1.752420
 C    -1.274752     0.882883     1.358084
 O    -3.043661     0.772772    -0.713000
 O    -2.230857    -1.361063     0.483082
 C     1.523294    -1.209965     1.026807
 O     2.879606    -0.687135    -1.264037
 O     1.988691     1.260162     0.162633
 P     1.490293    -0.186503    -0.482660
 P    -1.632053     0.035148    -0.222054
 C     0.138535    -1.729827    -2.500247
 O     0.286249    -2.764433    -2.983992
 C    -1.065027     0.148625     2.531666
 H    -1.209834    -0.932065     2.515665
 C    -1.067007     2.279288     1.352611
 C    -1.270910     3.107215     0.119269
 H    -2.342843     3.266459    -0.075840
 H    -0.846470     2.606498    -0.763652
 H    -0.789823     4.088817     0.217973
 C    -0.667100     0.780386     3.705510
 H    -0.501629     0.190715     4.609861
 C    -0.677488     2.893681     2.547290
 H    -0.528405     3.977056     2.555373
 C    -0.476429     2.159786     3.713664
 H    -0.166538     2.668214     4.630015
 C    -4.101361     1.199234     0.037252
 C    -4.465328     0.625871     1.257862
 H    -3.897699    -0.213892     1.655623
 C    -4.844271     2.258282    -0.492384
 H    -4.542893     2.676527    -1.455018
 C    -5.566137     1.133824     1.945816
 H    -5.846811     0.684296     2.901374
 C    -5.944316     2.750568     0.203104
 H    -6.521079     3.577631    -0.218030
 C    -6.307964     2.194204     1.429504
 H    -7.169503     2.582310     1.976967
 C    -2.542366    -2.505162    -0.189868
 C    -3.007024    -2.506150    -1.506014
 H    -3.136362    -1.564882    -2.038604
 C    -2.410827    -3.705425     0.511650
 H    -2.067961    -3.670542     1.546831
 C    -3.298941    -3.719819    -2.125296
 H    -3.649224    -3.717622    -3.160051
 C    -2.718378    -4.909786    -0.114417
 H    -2.613909    -5.846329     0.439000
 C    -3.153074    -4.923958    -1.439951
 H    -3.384063    -5.870064    -1.933827
 C     0.865523    -2.435136     0.839506
 H     0.358806    -2.633384    -0.107459
 C     2.164091    -0.937529     2.258799
 C     2.889215     0.332670     2.590753
 H     2.196338     1.185547     2.602386
 H     3.672660     0.560752     1.856022
 H     3.355444     0.247030     3.581566
 C     0.844653    -3.409981     1.830521
 H     0.340986    -4.360691     1.646068
 C     2.102987    -1.928157     3.247631
 H     2.587857    -1.729041     4.206818
 C     1.464371    -3.148257     3.047861
 H     1.455117    -3.894305     3.846382
 C     4.075553    -0.862223    -0.610650
 C     4.376949    -2.102213    -0.047028
 H     3.650090    -2.912002    -0.125318
 C     4.985055     0.193153    -0.533161
 H     4.733285     1.153040    -0.987332
 C     5.591691    -2.278433     0.610774
 H     5.824903    -3.248125     1.056697
 C     6.199642     0.003934     0.123344
 H     6.912127     0.830073     0.183458
 C     6.504274    -1.227604     0.702026
 H     7.455505    -1.370362     1.219474
 C     2.183924     2.414927    -0.528845
 C     2.093438     3.603949     0.199055
 H     1.854624     3.545642     1.262025
 C     2.496632     2.445045    -1.891532
 H     2.609118     1.513102    -2.447876
 C     2.292290     4.822086    -0.441566
 H     2.218582     5.748958     0.132545
 C     2.682238     3.675595    -2.522537
 H     2.921265     3.695060    -3.588531
 C     2.578438     4.866033    -1.807378
 H     2.728648     5.824459    -2.308496
