  88
scf done:    -4422.467836
 C    -1.558273     1.662889     2.279079
 H    -1.499413     2.693101     2.647643
 H    -2.588490     1.396439     2.026641
 C    -0.821284     0.651157     3.082921
 H    -0.325817     1.036860     3.983485
 H    -1.410853    -0.244787     3.322556
 H     0.083513     0.179176     2.503407
Co    -0.142904     1.113301     1.040416
 C    -1.154450    -1.484026    -1.186208
 O    -2.798117    -0.567793     0.736728
 O    -2.242639     0.865251    -1.359105
 C     2.739225     1.639018    -0.735925
 O     2.939115     0.422235     1.563624
 O     1.896955    -0.934944    -0.369599
 P     1.773495     0.550261     0.362216
 P    -1.485966    -0.014735    -0.146328
 C     0.163548     2.785681     0.750176
 O     0.317477     3.907788     0.540647
 C    -1.260867    -1.425310    -2.580489
 H    -1.550984    -0.484923    -3.050541
 C    -0.775356    -2.688748    -0.559033
 C    -0.639818    -2.800930     0.929849
 H    -1.614524    -3.012164     1.397343
 H    -0.259564    -1.866414     1.365993
 H     0.045638    -3.616419     1.199446
 C    -1.022572    -2.552555    -3.361868
 H    -1.116539    -2.492669    -4.448529
 C    -0.548091    -3.811067    -1.362162
 H    -0.258059    -4.750344    -0.883836
 C    -0.675294    -3.753762    -2.747340
 H    -0.492582    -4.648015    -3.348019
 C    -3.792951    -1.417253     0.346813
 C    -4.337687    -1.421451    -0.940428
 H    -3.961334    -0.727882    -1.691348
 C    -4.292190    -2.288326     1.318603
 H    -3.865558    -2.253362     2.322918
 C    -5.362676    -2.310920    -1.253659
 H    -5.800073    -2.335365    -2.253282
 C    -5.320425    -3.172702     1.008624
 H    -5.724505    -3.860013     1.753942
 C    -5.840395    -3.178243    -0.280213
 F    -6.821790    -4.028278    -0.584766
 C    -2.660114     2.154344    -1.143496
 C    -3.792106     2.406720    -0.367484
 H    -4.329802     1.572695     0.086389
 C    -1.966551     3.205151    -1.739670
 H    -1.078487     2.989834    -2.334441
 C    -4.225212     3.715860    -0.179598
 H    -5.105544     3.942321     0.424307
 C    -2.395950     4.515794    -1.555351
 H    -1.860553     5.356818    -1.998377
 C    -3.519159     4.755123    -0.774005
 F    -3.931713     6.009369    -0.591861
 C     3.820920     2.363261    -0.220656
 H     4.113872     2.213757     0.818769
 C     2.333619     1.830665    -2.073604
 C     1.172569     1.092088    -2.664890
 H     0.312445     1.101031    -1.980800
 H     1.420248     0.037467    -2.858412
 H     0.860289     1.543450    -3.616658
 C     4.522464     3.259476    -1.020310
 H     5.365957     3.815120    -0.604759
 C     3.055732     2.735452    -2.857925
 H     2.751560     2.887828    -3.896861
 C     4.139203     3.443053    -2.345811
 H     4.680816     4.145239    -2.984053
 C     2.643051    -0.125592     2.779668
 C     2.723200     0.678476     3.916476
 H     3.003845     1.727083     3.804369
 C     2.273788    -1.467574     2.888478
 H     2.223050    -2.083351     1.989304
 C     2.434424     0.142708     5.168123
 H     2.489274     0.748933     6.074050
 C     1.972802    -2.004198     4.137898
 H     1.677839    -3.048834     4.251568
 C     2.055566    -1.192019     5.262583
 F     1.768359    -1.703791     6.458129
 C     2.956710    -1.437149    -1.079069
 C     2.647308    -2.233639    -2.183103
 H     1.599273    -2.410719    -2.428044
 C     4.287930    -1.206984    -0.725730
 H     4.523203    -0.596893     0.145768
 C     3.666992    -2.796927    -2.943221
 H     3.448455    -3.423647    -3.809597
 C     5.308952    -1.765715    -1.491475
 H     6.357648    -1.598176    -1.240025
 C     4.988954    -2.551157    -2.590944
 F     5.969108    -3.085021    -3.320612
