  90
scf done:    -4722.417081
 C     0.463351    -2.350828    -3.344162
 H    -0.075539    -2.485544    -4.289582
 H     1.542534    -2.309993    -3.535099
 C     0.040613    -3.263150    -2.246837
 H    -0.777376    -3.952864    -2.493218
 H     0.858288    -3.825197    -1.770860
 H    -0.376639    -2.686818    -1.315524
Co    -0.322472    -1.107125    -2.070794
 C     1.906539    -0.797540     0.573723
 C     3.076957    -0.793483    -2.085398
 C     1.587339     1.546322    -1.192382
 C    -1.987392     1.240146    -0.136158
 C    -3.589488    -0.718388    -1.372899
 C    -1.976216    -1.418552     0.955997
 P    -1.861718    -0.516742    -0.663720
 P     1.516893    -0.326632    -1.155234
 C    -0.962670    -0.214917    -3.361019
 O    -1.338271     0.440466    -4.244422
 C     1.346367    -0.097523     1.654113
 H     0.757596     0.804380     1.477328
 C     2.628101    -1.964973     0.859488
 H     3.037443    -2.570757     0.048779
 C     1.535367    -0.517517     2.967049
 H     1.107361     0.046157     3.797531
 C     2.830514    -2.397016     2.167407
 H     3.401401    -3.303641     2.375044
 C     2.286772    -1.664578     3.221067
Cl     2.529661    -2.193069     4.851695
 H     2.789422    -0.609105    -3.131462
 H     3.176048    -1.886063    -1.993651
 C     4.359352    -0.093365    -1.768289
 C     5.227200    -0.546518    -0.764112
 H     4.988893    -1.456442    -0.212239
 C     4.717731     1.066876    -2.470295
 H     4.079623     1.418575    -3.285805
 C     6.387267     0.156597    -0.447367
 H     7.043350    -0.214655     0.343607
 C     5.873452     1.775567    -2.151884
 H     6.122671     2.682381    -2.707821
 C     6.710292     1.327797    -1.131405
 H     7.616081     1.883011    -0.877605
 H     0.565852     1.851375    -1.449444
 H     2.204144     1.768085    -2.077905
 C     2.058604     2.350616    -0.013755
 C     3.319957     2.188251     0.572169
 H     4.013278     1.446908     0.177157
 C     1.193540     3.304563     0.535774
 H     0.208614     3.444607     0.089604
 C     3.694193     2.951392     1.675121
 H     4.682651     2.802434     2.116524
 C     1.563295     4.068255     1.640744
 H     0.861650     4.803429     2.043409
 C     2.818641     3.891160     2.219032
 H     3.115476     4.483543     3.087928
 C    -1.999401     2.222198    -1.139075
 H    -1.877510     1.937094    -2.187284
 C    -2.147300     1.647429     1.192144
 H    -2.161548     0.916101     2.001046
 C    -2.179085     3.566168    -0.829109
 H    -2.187437     4.324573    -1.613514
 C    -2.308389     2.991814     1.519664
 H    -2.423922     3.302740     2.558964
 C    -2.326231     3.945081     0.505958
Cl    -2.492142     5.619818     0.909040
 H    -3.672016    -1.780470    -1.648037
 H    -3.557147    -0.159495    -2.320438
 C    -4.718202    -0.259002    -0.503359
 C    -5.151722     1.073984    -0.547619
 H    -4.691762     1.763039    -1.258996
 C    -5.344963    -1.122302     0.406153
 H    -5.049277    -2.173113     0.449825
 C    -6.155888     1.532856     0.299916
 H    -6.472149     2.577313     0.245590
 C    -6.352107    -0.666993     1.255444
 H    -6.825552    -1.361991     1.953145
 C    -6.757160     0.665321     1.210849
 H    -7.545322     1.024231     1.876790
 H    -2.965257    -1.216632     1.398502
 H    -1.216152    -0.964073     1.607204
 C    -1.699560    -2.890292     0.852260
 C    -0.507291    -3.403494     1.374971
 H     0.187441    -2.728214     1.875299
 C    -2.579941    -3.779680     0.221798
 H    -3.519891    -3.415313    -0.195477
 C    -0.194994    -4.756013     1.263082
 H     0.744291    -5.126621     1.680900
 C    -2.271888    -5.133661     0.108592
 H    -2.973835    -5.807271    -0.388825
 C    -1.074829    -5.627926     0.624866
 H    -0.832681    -6.689301     0.533715
