 102
scf done:    -4159.007388
 C    -0.535316     1.963372    -3.044501
 H    -0.152533     2.133595    -4.058019
 H    -1.606662     1.729328    -3.083243
 C    -0.159440     3.005036    -2.045037
 H     0.455034     3.828005    -2.433952
 H    -1.010874     3.412664    -1.480043
 H     0.498760     2.581883    -1.176710
Co     0.613065     0.959109    -1.836401
 C    -2.630728     0.856217    -0.759178
 C    -1.471027    -1.585276    -1.852208
 C    -0.831975    -0.781867     0.890000
 C     2.393418    -1.248007     0.039391
 C     3.930279     0.808211    -1.208799
 C     2.331100     1.404898     1.151223
 P     2.229592     0.507057    -0.480531
 P    -1.044812    -0.062922    -0.839973
 C     1.376806     0.262094    -3.182844
 O     1.838097    -0.280771    -4.101257
 C    -2.860259     1.756853     0.292006
 H    -2.138807     1.841770     1.104166
 C    -3.569264     0.820549    -1.799048
 H    -3.410285     0.172586    -2.661685
 C    -4.006369     2.542302     0.341166
 H    -4.194235     3.222371     1.173596
 C    -4.719321     1.607529    -1.773121
 H    -5.450413     1.576002    -2.582901
 C    -4.930613     2.451844    -0.692689
 F    -6.033050     3.198939    -0.650883
 H    -1.810387    -1.199048    -2.824569
 H    -0.487547    -2.035360    -2.042952
 C    -2.403196    -2.602014    -1.272306
 C    -1.894321    -3.646308    -0.484584
 H    -0.812612    -3.751804    -0.362013
 C    -3.789086    -2.528127    -1.450321
 H    -4.208047    -1.736653    -2.073995
 C    -2.751994    -4.547050     0.137889
 H    -2.341221    -5.347623     0.757595
 C    -4.667663    -3.427728    -0.835590
 C    -6.148624    -3.293303    -1.042022
 H    -6.495357    -2.282267    -0.776398
 H    -6.420335    -3.461810    -2.096419
 H    -6.708952    -4.015189    -0.431695
 C    -4.131724    -4.434062    -0.026550
 H    -4.800815    -5.141645     0.470334
 H    -0.641992    -1.854127     0.730495
 H     0.112811    -0.368181     1.260910
 C    -1.890294    -0.596872     1.935087
 C    -1.589682     0.089988     3.118740
 H    -0.571324     0.449997     3.291987
 C    -3.191172    -1.073834     1.757744
 H    -3.441355    -1.608860     0.840887
 C    -2.573897     0.310061     4.079460
 H    -2.326319     0.847044     4.998641
 C    -4.192443    -0.860886     2.708667
 C    -5.585761    -1.355224     2.448569
 H    -5.574037    -2.383453     2.056705
 H    -6.202237    -1.336350     3.358389
 H    -6.085350    -0.726990     1.692340
 C    -3.870604    -0.156130     3.873681
 H    -4.641614     0.023598     4.627892
 C     2.065631    -2.236844    -0.897922
 H     1.729400    -1.942182    -1.894313
 C     2.853753    -1.649076     1.299652
 H     3.149881    -0.909072     2.044693
 C     2.183199    -3.589659    -0.590227
 H     1.938680    -4.365858    -1.317875
 C     2.959649    -2.997828     1.629561
 H     3.309949    -3.319986     2.611791
 C     2.621221    -3.952315     0.678362
 F     2.726544    -5.242242     0.986401
 H     3.910898     0.265375    -2.165924
 H     3.957006     1.880056    -1.457753
 C     5.084123     0.388465    -0.356612
 C     5.735354     1.292135     0.494709
 H     5.451170     2.347691     0.488171
 C     5.498555    -0.948099    -0.345924
 H     5.004469    -1.659873    -1.013312
 C     6.752939     0.856952     1.339505
 H     7.257751     1.571463     1.994263
 C     6.510440    -1.405923     0.503298
 C     6.883786    -2.859553     0.512571
 H     6.056445    -3.470857     0.909612
 H     7.093726    -3.226028    -0.504048
 H     7.770771    -3.047655     1.133431
 C     7.133004    -0.483869     1.350918
 H     7.929164    -0.819177     2.021068
 H     1.714372     0.839054     1.864239
 H     3.370936     1.364376     1.512522
 C     1.828871     2.812595     1.056072
 C     2.591744     3.824563     0.464527
 H     3.600274     3.609890     0.105083
 C     0.543915     3.126485     1.512754
 H    -0.055668     2.341490     1.981758
 C     2.071033     5.109918     0.332024
 H     2.674912     5.894034    -0.131029
 C     0.006169     4.410474     1.392850
 C    -1.382463     4.715557     1.872935
 H    -2.085999     4.761821     1.025605
 H    -1.749146     3.944952     2.566288
 H    -1.425254     5.687551     2.386468
 C     0.789245     5.401643     0.789175
 H     0.390283     6.414038     0.682381
