  94
scf done:    -5942.001110
 C     1.112695     1.198246    -3.049706
 H     0.960774     2.166111    -3.543070
 H     2.172227     0.914207    -3.094431
 C     0.158257     0.130444    -3.458962
 H    -0.642570     0.451737    -4.138468
 H     0.639081    -0.781337    -3.847463
 H    -0.393749    -0.316356    -2.532354
Co     0.122766     0.900230    -1.388998
 C     2.349164    -1.607345    -1.613025
 C     3.360754     0.824842    -0.349580
 C     1.857055    -0.873213     1.150782
 C    -1.448038     0.439378     1.721342
 C    -3.002190     1.639069    -0.350990
 C    -2.678070    -1.039282    -0.469503
 P    -1.607855     0.433709    -0.114207
 P     1.823720    -0.184762    -0.558386
 C    -0.026363     2.589808    -1.207809
 O    -0.019092     3.745961    -1.113352
 C     1.493463    -2.728823    -1.642721
 O     0.397071    -2.639801    -0.865117
 C    -0.397132    -3.774713    -0.653295
 H    -1.211781    -3.452473     0.002369
 H    -0.833335    -4.153068    -1.592058
 H     0.182047    -4.582440    -0.171673
 C     3.431811    -1.593591    -2.517860
 O     4.152272    -0.462514    -2.586389
 C     5.314390    -0.400885    -3.362892
 H     5.742691     0.594598    -3.190761
 H     5.095863    -0.518799    -4.438435
 H     6.049423    -1.165435    -3.058044
 C     3.716950    -2.709646    -3.317380
 H     4.570537    -2.700118    -3.993778
 C     1.774706    -3.849054    -2.432665
 H     1.122172    -4.720736    -2.418713
 C     2.895031    -3.827717    -3.255690
 H     3.122587    -4.696802    -3.877298
 C     3.377921     2.164044    -0.734152
 H     2.483911     2.605034    -1.176401
 C     4.506552     0.276047     0.240687
 H     4.503970    -0.767727     0.565199
 C     4.520889     2.944428    -0.558265
 H     4.532548     3.993663    -0.857925
 C     5.654860     1.036277     0.416610
 H     6.550028     0.608176     0.870939
 C     5.655010     2.372591     0.009252
Cl     7.085695     3.329071     0.225172
 C     1.698886     0.073875     2.171874
 H     1.555116     1.126013     1.911384
 C     2.073607    -2.206236     1.503554
 H     2.256459    -2.956595     0.733300
 C     1.722398    -0.297694     3.509491
 H     1.584176     0.442670     4.297579
 C     2.079342    -2.599125     2.840988
 H     2.237314    -3.643525     3.116384
 C     1.884110    -1.643167     3.833660
Cl     1.796779    -2.139812     5.495607
 C    -1.424106    -0.690054     2.562744
 O    -1.385921    -1.901695     1.979538
 C    -1.492219    -3.046375     2.784055
 H    -1.484061    -3.906911     2.104638
 H    -0.641744    -3.134105     3.479228
 H    -2.435622    -3.053650     3.356085
 C    -1.281733     1.706484     2.324378
 O    -1.147348     2.727499     1.468564
 C    -1.118282     4.053454     1.923676
 H    -1.003376     4.673435     1.027171
 H    -0.261993     4.230781     2.596107
 H    -2.054308     4.317879     2.444062
 C    -1.264402     1.862466     3.713805
 H    -1.170584     2.850427     4.162494
 C    -1.428609    -0.539814     3.957269
 H    -1.427115    -1.410850     4.609546
 C    -1.362353     0.729709     4.514346
 H    -1.352441     0.835399     5.601659
 C    -3.959571     1.924264     0.627517
 H    -3.867735     1.493560     1.627699
 C    -3.146774     2.209462    -1.616899
 H    -2.390172     1.999252    -2.377799
 C    -5.029479     2.770338     0.355366
 H    -5.770126     3.002257     1.122635
 C    -4.218172     3.049273    -1.909758
 H    -4.326002     3.495988    -2.899419
 C    -5.153895     3.328359    -0.917135
Cl    -6.485404     4.383290    -1.261352
 C    -3.683903    -1.450040     0.416431
 H    -3.796848    -0.952560     1.381765
 C    -2.600274    -1.671421    -1.710117
 H    -1.841141    -1.367632    -2.429852
 C    -4.552690    -2.484204     0.094305
 H    -5.326978    -2.803748     0.793739
 C    -3.472683    -2.701806    -2.059384
 H    -3.401062    -3.188141    -3.033604
 C    -4.438425    -3.112712    -1.147517
Cl    -5.515166    -4.406657    -1.555162
