  80
scf done:    -3272.787911
 C     1.280917    -3.126782    -0.664277
 H     1.258095    -3.779297    -1.545838
 H     2.316152    -3.013584    -0.318704
 C     0.316224    -3.499575     0.412172
 H    -0.354702    -4.334121     0.165323
 H     0.771413    -3.683598     1.397803
 H    -0.421054    -2.630164     0.645676
Co     0.118003    -1.561138    -0.632222
 C     1.381221     0.880763     1.463658
 C     3.420968    -0.687879     0.073466
 C     1.855806     1.195716    -1.349422
 C    -1.801444     1.344326    -0.905672
 C    -3.227152    -1.061556    -0.749226
 C    -1.962009    -0.123294     1.693485
 P    -1.642834    -0.334839    -0.119466
 P     1.655917    -0.121796    -0.066554
 C    -0.238392    -1.803135    -2.287087
 O    -0.372524    -1.940573    -3.432124
 C     0.837281     2.171457     1.356965
 H     0.676841     2.615211     0.373744
 C     1.527516     0.318030     2.752299
 C     2.048297    -1.074890     2.959998
 H     3.149313    -1.102072     2.952681
 H     1.698641    -1.747508     2.162267
 H     1.713335    -1.479424     3.925466
 C     0.467822     2.907023     2.480218
 H     0.052375     3.910201     2.357446
 C     1.154701     1.073141     3.870235
 H     1.271188     0.630221     4.863572
 C     0.631526     2.357738     3.748979
 H     0.347591     2.921339     4.640743
 H     4.027082     0.104049     0.543706
 H     3.442140    -1.549252     0.756506
 C     4.012927    -1.109196    -1.269274
 H     4.187454    -0.221369    -1.897319
 H     3.276894    -1.722386    -1.814690
 C     5.314349    -1.880182    -1.112652
 H     6.070936    -1.287431    -0.573424
 H     5.158046    -2.811715    -0.544944
 H     5.739417    -2.154771    -2.090093
 H     1.977944     0.642898    -2.295512
 H     0.878080     1.687643    -1.445945
 C     2.958704     2.233184    -1.177527
 H     3.946640     1.749144    -1.238983
 H     2.908489     2.675922    -0.169643
 C     2.866477     3.334705    -2.223747
 H     2.938864     2.923434    -3.243485
 H     1.903682     3.866805    -2.155152
 H     3.670503     4.077065    -2.104173
 C    -1.340693     1.353157    -2.233097
 H    -0.929965     0.435085    -2.654682
 C    -2.348926     2.538429    -0.377952
 C    -2.973911     2.679092     0.981838
 H    -2.241205     2.568538     1.793204
 H    -3.764524     1.934095     1.146687
 H    -3.431795     3.672426     1.081704
 C    -1.373369     2.493464    -3.028265
 H    -1.004429     2.449808    -4.055298
 C    -2.339152     3.685484    -1.186613
 H    -2.745921     4.611801    -0.771768
 C    -1.857363     3.680728    -2.490882
 H    -1.875868     4.597529    -3.084950
 H    -4.069224    -0.425261    -0.424833
 H    -3.158116    -0.962739    -1.845798
 C    -3.453875    -2.520550    -0.381727
 H    -3.608588    -2.614478     0.706347
 H    -2.532096    -3.080079    -0.613877
 C    -4.634977    -3.134219    -1.116945
 H    -5.570752    -2.595457    -0.897055
 H    -4.481529    -3.099554    -2.207194
 H    -4.781769    -4.187716    -0.833768
 H    -1.363943     0.737421     2.025604
 H    -3.021562     0.131071     1.844869
 C    -1.591880    -1.323300     2.554664
 H    -0.519347    -1.524908     2.430367
 H    -2.113202    -2.229072     2.204787
 C    -1.904358    -1.087315     4.023430
 H    -1.371143    -0.199527     4.398086
 H    -2.981658    -0.920909     4.184678
 H    -1.604217    -1.947862     4.640905
