  80
scf done:    -3272.784892
 C     1.226621    -3.398342     0.425415
 H     0.776993    -4.390309     0.295249
 H     2.227058    -3.388189    -0.022220
 C     1.163276    -2.869971     1.819560
 H     0.647666    -3.518738     2.541950
 H     2.135968    -2.567499     2.239569
 H     0.554499    -1.876711     1.881778
Co     0.056371    -1.854846     0.206377
 C     1.823014     1.047023     0.211847
 C     3.251032    -1.143082    -0.981610
 C     0.951709     0.190045    -2.418809
 C    -2.029989     0.676105    -0.601710
 C    -3.105708    -1.303213     1.181565
 C    -1.135027     0.802561     2.157696
 P    -1.504842    -0.411662     0.782299
 P     1.501926    -0.484315    -0.761065
 C    -1.009553    -2.816552    -0.698191
 O    -1.695400    -3.459275    -1.384450
 C     1.428229     2.336530    -0.160291
 H     0.980091     2.518680    -1.136636
 C     2.386303     0.873036     1.486536
 H     2.681619    -0.132537     1.802927
 C     1.575085     3.403693     0.727810
 H     1.247243     4.402683     0.427882
 C     2.553053     1.928862     2.382538
 C     3.170448     1.704938     3.732234
 H     3.127877     0.645626     4.023140
 H     4.230754     2.007524     3.737452
 H     2.661597     2.293882     4.509953
 C     2.126550     3.205799     1.988736
 H     2.229487     4.047446     2.679165
 H     3.397438    -1.688053    -0.031293
 C     3.296905    -2.176470    -2.104213
 H     4.214252    -2.781966    -2.026822
 H     2.434375    -2.857409    -2.073225
 H     3.309861    -1.690510    -3.091175
 C     4.382763    -0.130201    -1.105296
 H     4.379954     0.600639    -0.284756
 H     5.352155    -0.655843    -1.082460
 H     4.336407     0.427456    -2.050350
 H     0.115683     0.841957    -2.112591
 C     1.964884     1.030812    -3.189854
 H     1.457185     1.559623    -4.013440
 H     2.468278     1.783866    -2.568076
 H     2.742372     0.399865    -3.645343
 C     0.349682    -0.887077    -3.315590
 H    -0.379392    -1.504729    -2.778215
 H    -0.164521    -0.411456    -4.166018
 H     1.119164    -1.557160    -3.725212
 C    -2.598497     0.071063    -1.734230
 H    -2.786388    -1.004585    -1.750234
 C    -1.782931     2.051940    -0.636396
 H    -1.340384     2.550427     0.226332
 C    -2.899158     0.830947    -2.858625
 H    -3.340778     0.347972    -3.733572
 C    -2.060770     2.826521    -1.770336
 C    -1.720315     4.288847    -1.785111
 H    -1.937292     4.762779    -0.816251
 H    -0.646064     4.441266    -1.986418
 H    -2.278497     4.827822    -2.563599
 C    -2.624570     2.198327    -2.883231
 H    -2.853547     2.784926    -3.777106
 H    -3.196744    -1.938678     0.284346
 C    -2.908858    -2.244323     2.363670
 H    -3.741293    -2.962891     2.424934
 H    -1.973035    -2.813243     2.251646
 H    -2.876493    -1.697571     3.318899
 C    -4.381145    -0.478043     1.289477
 H    -4.467482     0.257182     0.475901
 H    -5.256058    -1.145687     1.227896
 H    -4.451308     0.058942     2.244713
 H    -0.383424     1.452463     1.677677
 C    -2.301842     1.666636     2.628424
 H    -1.916839     2.528210     3.198066
 H    -2.915301     2.055336     1.804382
 H    -2.963273     1.103023     3.302438
 C    -0.441580     0.157337     3.352995
 H     0.482186    -0.357540     3.063031
 H    -0.164743     0.938061     4.079307
 H    -1.090047    -0.564161     3.871227
