  98
scf done:    -4801.663676
 C    -1.356818    -0.719248    -3.394316
 H    -1.270528    -1.557186    -4.095687
 H    -2.413476    -0.448729    -3.266706
 C    -0.428290     0.422995    -3.648506
 H     0.233368     0.294442    -4.515492
 H    -0.928975     1.401306    -3.699513
 H     0.312484     0.599809    -2.763855
Co    -0.196825    -0.802093    -1.833234
 C    -2.920058     1.156733    -1.219504
 O    -2.757161    -1.471579    -0.339663
 O    -1.613549     0.239375     1.024022
 C     1.768904    -1.031201     1.068462
 O     2.962357    -0.940668    -1.373616
 O     1.801031     1.165348    -0.554015
 P     1.526419    -0.476434    -0.657589
 P    -1.780399    -0.167652    -0.613519
 C    -0.036287    -2.501715    -1.994736
 O    -0.062289    -3.657220    -2.015470
 C    -2.323678     2.430533    -1.322426
 O    -1.031294     2.475715    -0.960297
 C    -0.370885     3.710237    -0.870521
 H     0.646402     3.487739    -0.535900
 H    -0.324133     4.213736    -1.850857
 H    -0.863880     4.370840    -0.137880
 C    -4.235495     1.006197    -1.701581
 O    -4.733723    -0.237823    -1.744376
 C    -6.090899    -0.442640    -2.026322
 H    -6.270072    -1.517496    -1.900509
 H    -6.342193    -0.151659    -3.060517
 H    -6.737168     0.110516    -1.323944
 C    -4.967002     2.122597    -2.134226
 H    -5.994093     2.011132    -2.478456
 C    -3.041687     3.547330    -1.759682
 H    -2.577957     4.531601    -1.800332
 C    -4.366358     3.375519    -2.146436
 H    -4.942087     4.240155    -2.485284
 C    -3.891303    -1.676092     0.375948
 C    -4.560163    -2.875456     0.108334
 H    -4.145331    -3.538146    -0.653525
 C    -4.400504    -0.803909     1.340566
 H    -3.876648     0.118674     1.574704
 C    -5.731652    -3.200016     0.784080
 H    -6.263940    -4.131967     0.584307
 C    -5.578548    -1.124027     2.014110
 H    -5.990961    -0.453307     2.770253
 C    -6.233603    -2.314378     1.730825
 F    -7.361080    -2.616355     2.379714
 C    -1.412229     1.427504     1.648751
 C    -0.181099     1.661995     2.267443
 H     0.597386     0.904253     2.187131
 C    -2.431999     2.379819     1.760870
 H    -3.396992     2.203790     1.284473
 C     0.039981     2.841386     2.971576
 H     0.992494     3.033632     3.469676
 C    -2.210787     3.566750     2.456687
 H    -2.993346     4.322261     2.547942
 C    -0.975603     3.787001     3.052286
 F    -0.762728     4.922728     3.721368
 C     2.854118    -0.556521     1.837994
 O     3.778639     0.140727     1.166767
 C     4.918899     0.625866     1.821022
 H     5.501424     1.161844     1.061684
 H     4.656030     1.330548     2.627586
 H     5.522841    -0.199743     2.233158
 C     0.826047    -1.874015     1.696853
 O    -0.091392    -2.435386     0.910626
 C    -1.076499    -3.276000     1.454663
 H    -1.665319    -3.635581     0.604812
 H    -1.737502    -2.723844     2.141813
 H    -0.623037    -4.133934     1.978588
 C     0.894454    -2.114910     3.076721
 H     0.143552    -2.730634     3.568289
 C     2.937481    -0.812342     3.209566
 H     3.769957    -0.433147     3.800101
 C     1.939603    -1.573072     3.811784
 H     1.990729    -1.764753     4.886260
 C     3.786923    -1.940926    -0.954142
 C     3.298868    -3.203635    -0.610931
 H     2.230177    -3.414989    -0.676058
 C     5.157576    -1.680839    -0.901092
 H     5.513938    -0.685368    -1.170496
 C     4.181808    -4.199140    -0.198304
 H     3.823061    -5.192709     0.075568
 C     6.042305    -2.676772    -0.499971
 H     7.118179    -2.498240    -0.453188
 C     5.541609    -3.924665    -0.145216
 F     6.388058    -4.878220     0.249494
 C     2.899974     1.959192    -0.631153
 C     3.042437     2.960941     0.333815
 H     2.312962     3.014426     1.144062
 C     3.818348     1.869758    -1.680052
 H     3.695334     1.093943    -2.434650
 C     4.101476     3.861134     0.264578
 H     4.226346     4.650669     1.008051
 C     4.887229     2.762004    -1.743940
 H     5.617406     2.709508    -2.553931
 C     5.019123     3.747336    -0.773263
 F     6.040450     4.603918    -0.842045
