  96
scf done:    -4254.669433
 C    -1.045705    -2.342104    -3.161355
 H    -1.177533    -3.424420    -3.277184
 H    -1.976858    -1.814091    -3.401322
 C     0.189036    -1.784215    -3.783814
 H     0.821627    -2.522378    -4.294924
 H     0.015634    -0.916405    -4.435153
 H     0.930874    -1.332563    -2.995314
Co    -0.044048    -1.737698    -1.601182
 O    -1.056677     1.266479    -1.810653
 O    -2.980830    -0.228706    -1.502429
 O    -1.423161     0.189697     0.480356
 O     1.807945    -1.691733     1.008571
 O     2.988235    -1.092696    -1.195200
 O     1.466425     0.593621    -0.006168
 P     1.525025    -0.992130    -0.447140
 P    -1.364391    -0.205884    -1.130151
 C    -0.150690    -3.281683    -0.827674
 O    -0.338682    -4.273626    -0.273512
 C    -1.632461     2.446186    -1.413691
 C    -0.935921     3.267689    -0.527377
 H     0.037546     2.941342    -0.160393
 C    -2.886116     2.817459    -1.899637
 H    -3.405462     2.148696    -2.586507
 C    -1.508570     4.469812    -0.117885
 H    -0.966674     5.112400     0.579980
 C    -3.450360     4.020349    -1.479110
 H    -4.434596     4.312871    -1.852998
 C    -2.767750     4.847661    -0.586252
 H    -3.215136     5.789080    -0.259515
 C    -3.927540    -1.087295    -0.996186
 C    -5.136521    -0.520207    -0.601609
 H    -5.257886     0.560502    -0.698958
 C    -3.711666    -2.460066    -0.885655
 H    -2.763937    -2.890091    -1.205037
 C    -6.145823    -1.310288    -0.048313
 C    -7.412645    -0.675981     0.445664
 H    -7.240296    -0.189773     1.420612
 H    -7.773073     0.099605    -0.246554
 H    -8.212989    -1.417469     0.578749
 C    -4.720918    -3.250654    -0.341559
 H    -4.559300    -4.326851    -0.243825
 C    -5.922895    -2.686800     0.078812
 H    -6.701003    -3.320692     0.511785
 C    -2.516987     0.222761     1.311936
 C    -3.258685     1.393202     1.447342
 H    -2.969470     2.275205     0.876292
 C    -2.843929    -0.922115     2.035744
 H    -2.247514    -1.827279     1.908523
 C    -4.373767     1.427563     2.289015
 C    -5.211436     2.669946     2.384876
 H    -5.532086     2.864078     3.419364
 H    -4.665225     3.550488     2.018336
 H    -6.125265     2.572159     1.774466
 C    -3.950000    -0.888927     2.879928
 H    -4.224637    -1.784513     3.441651
 C    -4.710216     0.272056     3.004705
 H    -5.578059     0.283261     3.669923
 C     2.080503    -1.035667     2.189358
 C     1.061843    -0.335509     2.834851
 H     0.074062    -0.286554     2.375310
 C     3.362426    -1.102786     2.729921
 H     4.141737    -1.653172     2.201699
 C     1.339011     0.314973     4.034351
 H     0.543388     0.869640     4.537147
 C     3.624819    -0.450085     3.933695
 H     4.629869    -0.498456     4.359374
 C     2.619860     0.263062     4.586661
 H     2.833103     0.775958     5.527192
 C     4.203757    -1.369576    -0.610392
 C     5.123288    -0.342671    -0.427057
 H     4.860078     0.668544    -0.739839
 C     4.504069    -2.680389    -0.240797
 H     3.765304    -3.467725    -0.397380
 C     6.362428    -0.602358     0.168765
 C     7.343331     0.516179     0.366425
 H     7.817932     0.796329    -0.588339
 H     6.841966     1.416199     0.753292
 H     8.142700     0.234435     1.066016
 C     5.737641    -2.942404     0.347854
 H     5.982802    -3.962400     0.652954
 C     6.655457    -1.913225     0.560289
 H     7.615908    -2.131506     1.034225
 C     2.405719     1.574468    -0.172076
 C     2.640683     2.083882    -1.446167
 H     2.073189     1.675686    -2.285456
 C     3.072673     2.078976     0.943908
 H     2.863247     1.665829     1.931175
 C     3.587022     3.096409    -1.639537
 C     3.836152     3.641379    -3.015511
 H     4.065778     2.834755    -3.728591
 H     2.945658     4.166358    -3.396918
 H     4.674302     4.351747    -3.022238
 C     4.008723     3.091093     0.753987
 H     4.545411     3.493908     1.616335
 C     4.272521     3.588683    -0.522886
 H     5.016443     4.378322    -0.655696
