 104
scf done:    -4111.001818
 C    -0.686258     0.690174    -3.521924
 H    -0.575347     0.140500    -4.463947
 H    -1.685503     1.145464    -3.485878
 C     0.441359     1.614604    -3.201401
 H     1.279287     1.585170    -3.911148
 H     0.147443     2.659437    -3.020746
 H     0.941255     1.366377    -2.174255
Co     0.047700    -0.121724    -1.911477
 O    -2.202024     1.145294     0.402898
 C    -3.258064    -0.229266    -1.704144
 C    -1.752798    -1.459329     0.536825
 O     1.425267    -2.207136    -0.003845
 C     3.237330    -0.606004    -1.431780
 C     1.966043     0.162246     1.113512
 P     1.610915    -0.614662    -0.520774
 P    -1.710474    -0.065852    -0.693676
 C     0.228917    -1.628921    -2.713287
 O     0.238559    -2.670443    -3.215587
 C    -2.256643     2.470710     0.161638
 C    -2.515810     3.297669     1.262630
 H    -2.659868     2.830202     2.238359
 C    -2.076007     3.041116    -1.102953
 H    -1.875929     2.405576    -1.964672
 C    -2.584599     4.675671     1.096798
 H    -2.785402     5.309656     1.963863
 C    -2.147007     4.426388    -1.255185
 H    -2.006144     4.859136    -2.248885
 C    -2.398483     5.251814    -0.162238
 H    -2.455469     6.334828    -0.288705
 H    -3.320571     0.734054    -2.236321
 H    -2.981330    -0.962264    -2.473262
 C    -4.583182    -0.536959    -1.075369
 C    -5.190196     0.397366    -0.227369
 H    -4.675665     1.335197    -0.012395
 C    -5.253847    -1.744343    -1.361369
 C    -4.652686    -2.786153    -2.262946
 H    -3.673297    -3.136975    -1.897571
 H    -4.490069    -2.403848    -3.283763
 H    -5.309804    -3.663296    -2.339458
 C    -6.427994     0.147309     0.354323
 H    -6.872830     0.886401     1.024306
 C    -6.504660    -1.973582    -0.777625
 H    -7.026378    -2.908801    -0.999981
 C    -7.091051    -1.045425     0.078181
 H    -8.065846    -1.253807     0.525700
 H    -1.906932    -2.349552    -0.094528
 H    -0.718319    -1.549065     0.897159
 C    -2.728853    -1.438718     1.678615
 C    -3.904227    -2.190386     1.594261
 H    -4.084670    -2.789614     0.701180
 C    -2.471926    -0.710844     2.860414
 C    -1.169050    -0.001725     3.087797
 H    -0.923087     0.682972     2.265537
 H    -0.344354    -0.729258     3.184242
 H    -1.194354     0.581462     4.018821
 C    -4.853863    -2.184757     2.610429
 H    -5.768676    -2.770765     2.500795
 C    -3.439074    -0.707576     3.871022
 H    -3.243179    -0.134650     4.781963
 C    -4.628183    -1.422461     3.751912
 H    -5.366043    -1.395726     4.557422
 C     2.422371    -3.046651     0.395360
 C     2.863837    -3.061587     1.720395
 H     2.400763    -2.394225     2.448523
 C     2.966895    -3.932799    -0.538089
 H     2.568298    -3.931521    -1.555103
 C     3.883479    -3.933924     2.095488
 H     4.231643    -3.939727     3.131030
 C     3.985861    -4.801103    -0.152783
 H     4.413661    -5.488629    -0.886140
 C     4.455606    -4.797026     1.160958
 H     5.256664    -5.476393     1.459719
 H     3.337898    -1.641415    -1.793644
 H     3.024381    -0.004132    -2.325087
 C     4.504764    -0.156301    -0.768163
 C     5.292111    -1.073759    -0.060477
 H     4.959458    -2.110486     0.022234
 C     4.944367     1.179417    -0.893094
 C     4.152639     2.198343    -1.658929
 H     3.135337     2.312302    -1.254042
 H     4.057086     1.921170    -2.721997
 H     4.634333     3.183879    -1.613073
 C     6.498402    -0.693564     0.522029
 H     7.094808    -1.430161     1.065113
 C     6.159853     1.541945    -0.302311
 H     6.501739     2.575864    -0.398984
 C     6.936047     0.622790     0.399028
 H     7.881218     0.936392     0.848503
 H     1.122939    -0.153982     1.747805
 H     2.870309    -0.321475     1.505388
 C     2.099110     1.659270     1.126860
 C     1.128474     2.445918     0.497387
 H     0.292806     1.950212     0.002023
 C     3.167693     2.287347     1.799543
 C     4.177791     1.500565     2.581995
 H     4.675560     0.734940     1.969637
 H     3.703753     0.984036     3.433119
 H     4.959013     2.158681     2.985408
 C     1.212256     3.835389     0.481060
 H     0.429004     4.417528    -0.009606
 C     3.247845     3.683644     1.758493
 H     4.080745     4.175235     2.268906
 C     2.291207     4.456793     1.102802
 H     2.381953     5.545702     1.095444
