  92
scf done:    -4350.632955
 C    -0.869723    -1.073492     4.026469
 H    -0.826616    -0.532857     4.979388
 H    -1.902463    -1.386717     3.829085
 C     0.145194    -2.156462     3.867626
 H     0.791902    -2.316260     4.741669
 H    -0.263299    -3.114414     3.517153
 H     0.930267    -1.905859     3.035587
Co     0.223672    -0.380959     2.561476
 O    -1.374520    -2.452005     0.796122
 C    -3.074210    -0.398800     1.693597
 C    -1.302164    -0.117211    -0.589531
 O     1.943522     0.588187    -0.147947
 C     3.537487     0.011084     2.018368
 C     2.236504    -1.995133     0.410365
 P     1.891841    -0.353657     1.228043
 P    -1.324811    -0.774429     1.133865
 C     0.510263     1.088213     3.405383
 O     0.630232     2.101631     3.950980
 C    -2.407047    -3.145330     0.244023
 C    -3.331237    -3.775886     1.083459
 H    -3.201440    -3.693561     2.164731
 C    -2.530623    -3.276377    -1.143733
 H    -1.798504    -2.799650    -1.796010
 C    -4.389560    -4.498882     0.538461
 H    -5.110981    -4.980965     1.202328
 C    -3.590641    -4.004872    -1.680214
 H    -3.683539    -4.096665    -2.765024
 C    -4.528946    -4.610135    -0.844988
 H    -5.361152    -5.174783    -1.270265
 H    -3.452223    -1.339191     2.124089
 H    -2.926625     0.289119     2.537382
 C    -4.061276     0.181990     0.724896
 C    -4.390888     1.541753     0.805866
 H    -3.937182     2.156811     1.586016
 C    -4.668339    -0.583296    -0.278115
 H    -4.460872    -1.651458    -0.351908
 C    -5.262475     2.135449    -0.099631
 H    -5.506190     3.197676    -0.046376
 C    -5.540596    -0.004576    -1.197401
 H    -6.011888    -0.596548    -1.984056
 C    -5.818087     1.352548    -1.103381
 F    -6.641704     1.914051    -1.989604
 H    -0.305619    -0.362681    -0.994181
 H    -2.041019    -0.687992    -1.170901
 C    -1.600098     1.350199    -0.731538
 C    -2.230530     1.816248    -1.889767
 H    -2.515279     1.106364    -2.670486
 C    -1.266973     2.276801     0.261743
 H    -0.769799     1.928412     1.169964
 C    -2.522772     3.166388    -2.058644
 H    -3.022473     3.536279    -2.955664
 C    -1.557404     3.628841     0.113715
 H    -1.295091     4.353400     0.885718
 C    -2.181475     4.057421    -1.049372
 F    -2.460168     5.353966    -1.201876
 C     1.816077     1.934701    -0.282946
 C     1.571309     2.395246    -1.579988
 H     1.471041     1.661350    -2.381510
 C     1.942661     2.840930     0.771082
 H     2.105108     2.496272     1.791531
 C     1.444918     3.758248    -1.815912
 H     1.237481     4.109669    -2.829211
 C     1.819080     4.207682     0.518302
 H     1.909138     4.909529     1.350746
 C     1.569919     4.673930    -0.768846
 H     1.462792     5.743941    -0.957253
 H     3.444278     0.992463     2.506637
 H     3.610039    -0.727899     2.832916
 C     4.721000    -0.053896     1.104960
 C     5.533259    -1.194714     1.055838
 H     5.345301    -2.021880     1.746145
 C     5.013517     1.002326     0.230300
 H     4.407291     1.910316     0.253700
 C     6.587773    -1.298701     0.151668
 H     7.221925    -2.185821     0.110152
 C     6.063490     0.915895    -0.678392
 H     6.292666     1.734803    -1.362534
 C     6.835366    -0.239940    -0.712114
 F     7.838321    -0.329329    -1.582770
 H     3.247421    -2.301894     0.718553
 H     1.518036    -2.691005     0.864954
 C     2.119857    -2.050671    -1.082832
 C     1.047758    -2.723131    -1.675792
 H     0.308626    -3.207566    -1.034612
 C     3.068711    -1.439640    -1.913587
 H     3.913465    -0.908109    -1.471350
 C     0.908539    -2.782747    -3.061432
 H     0.079260    -3.313826    -3.533003
 C     2.944413    -1.489800    -3.297494
 H     3.677929    -1.016795    -3.952905
 C     1.859652    -2.157925    -3.856066
 F     1.735743    -2.204576    -5.182340
