 108
scf done:    -4039.191204
 C     0.333714     2.501738     3.114422
 H    -0.203508     2.740077     4.040338
 H     1.410865     2.449410     3.314617
 C    -0.059186     3.319381     1.934038
 H    -0.851015     4.059844     2.110006
 H     0.778717     3.802174     1.408278
 H    -0.500418     2.672716     1.063554
Co    -0.483290     1.166868     1.957948
 C     1.779778     0.611161    -0.629964
 C     2.897916     0.723399     2.059438
 C     1.338518    -1.605713     1.244150
 C    -2.175806    -1.321252     0.230941
 C    -3.761660     0.762675     1.253735
 C    -2.107893     1.243103    -1.096766
 P    -2.023245     0.475035     0.594326
 P     1.338754     0.266295     1.117182
 C    -1.158498     0.423659     3.322224
 O    -1.558931    -0.126200     4.265057
 C     1.154433    -0.100364    -1.665477
 H     0.470268    -0.918982    -1.434873
 C     2.632713     1.665148    -0.977374
 H     3.092886     2.271286    -0.193925
 C     1.414566     0.216088    -2.995009
 H     0.924683    -0.352780    -3.789069
 C     2.928865     1.977714    -2.308955
 C     3.936143     3.041653    -2.636756
 H     3.988282     3.809025    -1.851037
 H     4.944239     2.603747    -2.733427
 H     3.707001     3.541600    -3.589129
 C     2.303735     1.239818    -3.319446
 H     2.514742     1.469276    -4.367447
 H     3.043044     1.803673     1.905769
 H     2.575517     0.613347     3.105874
 C     4.159688    -0.043062     1.820223
 C     4.438935    -1.191967     2.573127
 H     3.761894    -1.488273     3.378676
 C     5.083549     0.337356     0.837314
 H     4.905431     1.244229     0.257800
 C     5.573406    -1.954756     2.310818
 H     5.771796    -2.851642     2.902347
 C     6.227670    -0.415385     0.558947
 C     7.160066    -0.004703    -0.543552
 H     7.121270     1.079815    -0.721306
 H     8.200934    -0.279601    -0.318946
 H     6.886519    -0.502035    -1.489273
 C     6.458480    -1.577700     1.304048
 H     7.347082    -2.182457     1.103276
 H     1.933622    -1.812738     2.147422
 H     0.302923    -1.865639     1.491901
 C     1.804456    -2.461000     0.100232
 C     0.923965    -3.402135    -0.448364
 H    -0.074373    -3.514733    -0.023645
 C     3.076580    -2.335960    -0.463174
 H     3.771648    -1.599437    -0.060545
 C     1.309001    -4.181121    -1.535659
 H     0.609845    -4.911595    -1.951646
 C     3.478275    -3.106203    -1.558381
 C     4.840937    -2.900976    -2.154699
 H     5.616929    -2.892422    -1.373972
 H     5.089939    -3.686079    -2.882745
 H     4.894605    -1.930109    -2.675117
 C     2.577769    -4.032675    -2.093084
 H     2.874148    -4.641895    -2.951664
 C    -2.189597    -2.202402     1.324265
 H    -2.029646    -1.824997     2.337147
 C    -2.386026    -1.835337    -1.049253
 H    -2.394014    -1.169383    -1.914409
 C    -2.440440    -3.555849     1.126268
 H    -2.462753    -4.233419     1.983078
 C    -2.619688    -3.200429    -1.266353
 C    -2.808256    -3.719633    -2.661017
 H    -3.495570    -3.080485    -3.235566
 H    -1.847273    -3.737466    -3.201527
 H    -3.210282    -4.742458    -2.661329
 C    -2.657347    -4.052172    -0.159951
 H    -2.848947    -5.118564    -0.307107
 H    -3.740356     0.328327     2.264474
 H    -3.850920     1.851204     1.386113
 C    -4.871785     0.182762     0.432049
 C    -5.480949     0.901268    -0.607096
 H    -5.205696     1.941990    -0.789337
 C    -5.287477    -1.135644     0.648780
 H    -4.834623    -1.704495     1.464451
 C    -6.446661     0.302432    -1.411215
 H    -6.914397     0.877039    -2.214502
 C    -6.246208    -1.758866    -0.155539
 C    -6.621733    -3.190651     0.094920
 H    -5.752723    -3.851395    -0.054754
 H    -6.964584    -3.338799     1.130930
 H    -7.423576    -3.523357    -0.579022
 C    -6.820500    -1.022537    -1.195992
 H    -7.573909    -1.488848    -1.836698
 H    -1.328894     0.748560    -1.693714
 H    -3.085537     0.997457    -1.540951
 C    -1.856539     2.723252    -1.090632
 C    -2.814070     3.636843    -0.629306
 H    -3.790305     3.286677    -0.292534
 C    -0.621960     3.218375    -1.521830
 H     0.132759     2.516280    -1.883979
 C    -2.532627     4.998909    -0.594976
 H    -3.289738     5.699825    -0.235055
 C    -0.321177     4.584906    -1.490578
 C     1.028086     5.073363    -1.927971
 H     1.351943     4.577526    -2.854403
 H     1.031469     6.159860    -2.093941
 H     1.789924     4.848807    -1.163224
 C    -1.292928     5.471991    -1.019150
 H    -1.077624     6.543532    -0.988432
