  62
scf done:    -3409.712054
 C    -0.381595    -3.608587    -0.774610
 H    -1.192772    -4.305300    -0.534445
 H    -0.175294    -3.604176    -1.850184
 C     0.823707    -3.711060     0.098842
 H     0.770277    -4.493359     0.868226
 H     1.768556    -3.785563    -0.457358
 H     1.011684    -2.744848     0.740966
Co    -0.407115    -1.896554     0.167098
 O     0.810694     0.633558    -1.654890
 O     1.153601    -1.710484    -2.583196
 O    -1.028044    -0.582155    -2.700225
 O    -0.337946     1.170103     1.356712
 O    -0.775075    -0.523995     3.066085
 O     1.539025    -0.289440     2.041440
 P    -0.012908    -0.423655     1.610621
 P     0.129535    -0.902676    -1.603328
 C    -2.052597    -2.169660     0.578473
 O    -3.180912    -2.337111     0.762503
 C     1.988618     0.972453    -1.065956
 C     2.956759     0.039969    -0.687254
 H     2.786164    -1.023746    -0.854797
 C     2.239667     2.334085    -0.870766
 H     1.491419     3.054445    -1.204578
 C     4.138310     0.474905    -0.090226
 H     4.880558    -0.270392     0.209124
 C     3.427621     2.750465    -0.282885
 H     3.604995     3.820690    -0.142440
 C     4.399446     1.829109     0.131518
 C     5.661939     2.285979     0.803752
 H     6.095916     3.161983     0.297907
 H     6.421557     1.491351     0.815392
 H     5.474876     2.578347     1.850945
 C     1.550736    -1.212759    -3.846669
 H     0.676213    -0.931319    -4.451154
 H     2.210296    -0.337131    -3.734544
 H     2.102771    -2.016969    -4.351387
 C    -2.285627    -0.057787    -2.326127
 H    -2.198090     0.985830    -1.987809
 H    -2.926153    -0.095121    -3.217380
 H    -2.748874    -0.654366    -1.525710
 C    -1.503896     1.656325     0.835333
 C    -1.419376     2.781803     0.014969
 H    -0.437986     3.214283    -0.177671
 C    -2.746535     1.088105     1.108457
 H    -2.819557     0.231865     1.778803
 C    -2.572951     3.319332    -0.542888
 H    -2.491730     4.198624    -1.188213
 C    -3.891617     1.630809     0.527542
 H    -4.858249     1.165086     0.737433
 C    -3.832572     2.750056    -0.307359
 C    -5.070754     3.340806    -0.917243
 H    -4.942059     3.520295    -1.995882
 H    -5.319552     4.310712    -0.455883
 H    -5.938264     2.679032    -0.785573
 C    -0.747681    -1.755711     3.754185
 H    -0.832609    -2.603226     3.051695
 H     0.186275    -1.864120     4.330227
 H    -1.600972    -1.775951     4.445451
 C     2.031082     0.785107     2.823520
 H     2.125706     1.689953     2.205991
 H     1.367636     0.990245     3.678333
 H     3.023135     0.488509     3.188396
