  84
scf done:    -5562.792085
 C    -0.782313     0.609374    -3.417267
 H    -0.655243     0.028584    -4.339066
 H    -1.816790     0.962047    -3.331197
 C     0.255490     1.653257    -3.188705
 H     1.027672     1.725276    -3.968187
 H    -0.137779     2.657323    -2.970860
 H     0.900849     1.422373    -2.240647
Co     0.082579    -0.059810    -1.803044
 C    -1.460381     1.782293     0.658715
 C    -3.278533     0.493204    -1.149724
 C    -1.982384    -1.081713     0.691335
 C     1.551973    -1.712676     0.831768
 C     3.325269    -0.626125    -1.119592
 C     2.102252     1.130135     0.733903
 P     1.686232    -0.309433    -0.337918
 P    -1.581313     0.316182    -0.443551
 C     0.257615    -1.613886    -2.496979
 O     0.280984    -2.686615    -2.935076
 C    -1.051193     1.716960     1.993933
 H    -0.911305     0.749863     2.477993
 C    -1.604567     3.047501     0.066186
 H    -1.899604     3.115875    -0.986111
 C    -0.816564     2.886316     2.716293
 H    -0.485648     2.822132     3.755578
 C    -1.383364     4.227386     0.778691
 C    -1.556194     5.569387     0.128497
 H    -1.771387     5.474127    -0.944924
 H    -2.385763     6.129835     0.588637
 H    -0.651563     6.187693     0.241523
 C    -0.986010     4.129968     2.120018
 H    -0.786517     5.039405     2.693305
 C    -3.629189    -0.393933    -2.176085
 H    -2.876143    -1.083718    -2.566916
 C    -4.252368     1.366967    -0.656801
 H    -4.010568     2.058919     0.152719
 C    -4.915659    -0.410111    -2.702495
 H    -5.186044    -1.103248    -3.500612
 C    -5.542982     1.368835    -1.181726
 H    -6.301549     2.053283    -0.798359
 C    -5.867278     0.479308    -2.203504
Cl    -7.469717     0.476546    -2.860104
 C    -2.775876    -0.928708     1.835419
 H    -3.168210     0.054396     2.104954
 C    -1.556902    -2.364374     0.335990
 H    -0.957639    -2.503573    -0.563598
 C    -3.076116    -2.018275     2.646427
 H    -3.674231    -1.897033     3.551019
 C    -1.870793    -3.467938     1.122624
 H    -1.521219    -4.463797     0.849259
 C    -2.605014    -3.281239     2.289218
Cl    -2.917162    -4.634638     3.328397
 C     1.884200    -2.995853     0.383214
 H     2.296306    -3.139035    -0.618484
 C     1.000644    -1.559398     2.108970
 H     0.716801    -0.564870     2.457543
 C     1.679778    -4.093867     1.216051
 H     1.939745    -5.094653     0.862768
 C     0.791434    -2.651477     2.954571
 C     0.200601    -2.470209     4.321898
 H    -0.210614    -1.459202     4.450315
 H    -0.611130    -3.191862     4.498182
 H     0.958166    -2.629107     5.106756
 C     1.141963    -3.924565     2.489016
 H     0.973924    -4.795083     3.128990
 C     3.454890    -0.480649    -2.502242
 H     2.566461    -0.233184    -3.088626
 C     4.454059    -0.974499    -0.366926
 H     4.374204    -1.109244     0.714013
 C     4.684095    -0.666727    -3.130861
 H     4.784665    -0.555191    -4.211558
 C     5.685801    -1.169298    -0.979577
 H     6.565809    -1.445802    -0.396755
 C     5.793644    -1.009963    -2.362890
Cl     7.326240    -1.250300    -3.129608
 C     2.799092     1.026056     1.944695
 H     3.102790     0.048447     2.324044
 C     1.735254     2.402859     0.285945
 H     1.167620     2.505407    -0.639105
 C     3.093813     2.156731     2.700811
 H     3.619107     2.071421     3.653405
 C     2.043580     3.543968     1.016194
 H     1.743377     4.530860     0.663301
 C     2.706527     3.411504     2.232875
Cl     3.021838     4.820081     3.188857
