  80
scf done:    -5634.605197
 C    -0.435676    -3.565401    -0.124372
 H    -0.013750    -4.364527     0.496154
 H    -1.519802    -3.690155    -0.226966
 C     0.305154    -3.294684    -1.387419
 H     1.195639    -3.917587    -1.551528
 H    -0.324217    -3.296880    -2.289127
 H     0.745515    -2.205394    -1.429532
Co     0.248935    -1.765828     0.191449
 O    -1.750351     0.224973    -1.462394
 C    -3.116644    -1.741322    -0.230192
 C    -2.089730     0.439963     1.259381
 O     2.168325     0.419277     1.574511
 C     3.263230    -0.713838    -0.683829
 C     1.348992     1.386776    -0.774272
 P     1.685138    -0.190978     0.078165
 P    -1.602588    -0.726433    -0.063182
 C     0.664619    -2.246565     1.778232
 O     0.837090    -2.553997     2.880034
 C    -2.567839     1.305713    -1.632346
 C    -2.197439     2.544997    -1.103766
 H    -1.283865     2.616714    -0.513419
 C    -3.742875     1.188175    -2.377579
 H    -4.025094     0.216837    -2.784563
 C    -2.993938     3.662730    -1.330119
 H    -2.688335     4.629305    -0.923055
 C    -4.539061     2.312500    -2.593375
 H    -5.456763     2.215660    -3.178663
 C    -4.169449     3.551794    -2.072961
 H    -4.794205     4.430180    -2.248952
 C    -3.501128    -2.197951    -1.496092
 H    -2.962195    -1.846131    -2.379176
 C    -3.792283    -2.228396     0.894816
 H    -3.491924    -1.904323     1.894506
 C    -4.556664    -3.092760    -1.645623
 H    -4.861553    -3.442801    -2.633221
 C    -4.848043    -3.124868     0.760807
 H    -5.380004    -3.498635     1.637140
 C    -5.228464    -3.548824    -0.512322
Cl    -6.544025    -4.659910    -0.686940
 C    -1.123380     0.869146     2.175356
 H    -0.113098     0.457085     2.139082
 C    -3.385589     0.971192     1.343945
 H    -4.156703     0.650143     0.640339
 C    -1.430468     1.818970     3.145563
 H    -0.675564     2.151477     3.859620
 C    -3.706502     1.918011     2.308952
 H    -4.711588     2.337726     2.369591
 C    -2.721228     2.341071     3.202111
Cl    -3.111575     3.526987     4.399864
 C     3.438427     0.328225     2.083328
 C     4.432194     1.215220     1.666942
 H     4.198176     1.971794     0.916054
 C     3.713653    -0.645121     3.043548
 H     2.918109    -1.325087     3.352472
 C     5.710778     1.119070     2.211142
 H     6.489228     1.811143     1.881351
 C     4.995280    -0.729065     3.583861
 H     5.211024    -1.491397     4.336259
 C     5.997537     0.147127     3.168797
 H     7.001614     0.073715     3.592115
 C     3.706554    -2.014668    -0.412346
 H     3.080609    -2.671559     0.197775
 C     4.055983     0.123293    -1.477434
 H     3.724493     1.139340    -1.702242
 C     4.924125    -2.469823    -0.904890
 H     5.277282    -3.478678    -0.686458
 C     5.269238    -0.324905    -1.988407
 H     5.889441     0.322457    -2.610248
 C     5.698939    -1.618625    -1.692678
Cl     7.211960    -2.175847    -2.316113
 C     1.464195     2.622311    -0.131327
 H     1.772298     2.656482     0.915167
 C     0.924143     1.346530    -2.108228
 H     0.791636     0.385207    -2.610504
 C     1.175396     3.804716    -0.811060
 H     1.253389     4.771339    -0.310952
 C     0.641581     2.518457    -2.798283
 H     0.296908     2.491612    -3.832693
 C     0.765086     3.743812    -2.140776
Cl     0.356644     5.201918    -2.975043
