  80
scf done:    -3796.720601
 C    -0.381834    -3.398018    -0.799044
 H     0.177057    -4.259510    -0.414980
 H    -1.460196    -3.591281    -0.763985
 C     0.131501    -2.839189    -2.080520
 H     1.017357    -3.343735    -2.491348
 H    -0.633944    -2.729160    -2.862467
 H     0.499355    -1.727934    -1.974238
Co     0.247679    -1.637461    -0.243097
 O    -2.088667     0.485594    -1.130650
 C    -3.135447    -1.812589    -0.187927
 C    -2.007601     0.100493     1.590656
 O     2.255708     0.407470     1.232068
 C     3.031486    -0.228021    -1.335430
 C     1.039648     1.716485    -0.754999
 P     1.569155     0.040218    -0.265600
 P    -1.673326    -0.724636    -0.009415
 C     0.931463    -2.363275     1.143586
 O     1.286883    -2.852471     2.130676
 C    -2.974976     1.500739    -0.918010
 C    -2.563705     2.642873    -0.225910
 H    -1.546405     2.686970     0.164415
 C    -4.275769     1.419153    -1.420362
 H    -4.587108     0.521804    -1.955831
 C    -3.453463     3.695038    -0.035257
 H    -3.123418     4.582720     0.509764
 C    -5.160278     2.478937    -1.223887
 H    -6.177126     2.409676    -1.618359
 C    -4.755808     3.618244    -0.529689
 H    -5.453111     4.444979    -0.376310
 C    -3.602844    -2.580702     0.885075
 C    -3.675494    -2.025732    -1.461997
 C    -5.160190    -3.712649    -0.576938
 C    -4.686475    -2.965213    -1.654403
 C    -4.612440    -3.521062     0.691321
 H    -3.172867    -2.441865     1.880345
 H    -4.973927    -4.109249     1.538330
 H    -5.952490    -4.449963    -0.726527
 H    -5.104521    -3.116907    -2.652713
 H    -3.293989    -1.446629    -2.306807
 C    -3.304452     0.463236     1.984605
 C    -0.926759     0.438308     2.412548
 C    -2.425688     1.500905     3.979503
 C    -1.135111     1.137990     3.599938
 C    -3.510753     1.159017     3.171683
 H    -4.158289     0.207968     1.353459
 H    -4.524695     1.441802     3.464008
 H    -2.589172     2.048807     4.910983
 H    -0.281267     1.394194     4.231539
 H     0.086639     0.150607     2.126710
 C     3.587494     0.307817     1.533591
 C     4.483284     1.297461     1.125150
 H     4.119011     2.142414     0.538617
 C     4.030363    -0.781546     2.284197
 H     3.309765    -1.542328     2.588418
 C     5.829447     1.189186     1.465633
 H     6.529814     1.962527     1.141071
 C     5.378516    -0.876699     2.622821
 H     5.724514    -1.730233     3.210837
 C     6.282436     0.103209     2.213705
 H     7.339040     0.021313     2.478061
 C     3.576747    -1.518411    -1.359877
 C     3.634370     0.786419    -2.088488
 C     5.313979    -0.770231    -2.857818
 C     4.767918     0.512758    -2.850062
 C     4.718355    -1.785487    -2.110308
 H     3.091822    -2.308366    -0.780060
 H     5.142724    -2.792147    -2.114285
 H     6.206856    -0.980277    -3.451763
 H     5.230866     1.308772    -3.438162
 H     3.214843     1.794759    -2.079693
 C     1.240841     2.832913     0.061639
 C     0.403757     1.871717    -1.993036
 C     0.229844     4.250174    -1.615302
 C     0.010361     3.134067    -2.424458
 C     0.836248     4.097071    -0.370539
 H     1.711588     2.703643     1.037868
 H     0.994668     4.965487     0.273438
 H    -0.090538     5.239102    -1.951138
 H    -0.487201     3.246849    -3.390110
 H     0.204345     0.995873    -2.615312
