 106
scf done:    -4261.255405
 C    -1.191190    -0.421417    -3.156601
 H    -1.003877    -1.187149    -3.919528
 H    -2.270066    -0.245836    -3.053755
 C    -0.363594     0.810152    -3.289895
 H     0.410951     0.774084    -4.067765
 H    -0.946995     1.740292    -3.382367
 H     0.206352     1.040059    -2.297027
Co    -0.090550    -0.510744    -1.543645
 C    -2.492342     1.744048    -0.903638
 C    -3.225527    -1.027023    -0.320799
 C    -1.739628     0.321602     1.511966
 C     1.656048    -0.742438     1.477239
 C     3.148234    -1.262379    -0.899982
 C     2.655764     1.331679    -0.322891
 P     1.705342    -0.258909    -0.300847
 P    -1.786361     0.136406    -0.321671
 C     0.191237    -2.162679    -1.851027
 O     0.275396    -3.298542    -2.076084
 C    -1.716885     2.902027    -0.682650
 O    -0.550853     2.703781    -0.039176
 C     0.222259     3.804924     0.348606
 H     1.125075     3.391711     0.808349
 H     0.523188     4.419408    -0.515600
 H    -0.320601     4.438686     1.072713
 C    -3.647504     1.883693    -1.701378
 O    -4.294798     0.755663    -2.035650
 C    -5.520926     0.804931    -2.703453
 H    -5.865905    -0.233970    -2.781046
 H    -5.420678     1.229039    -3.718077
 H    -6.269121     1.390459    -2.141448
 C    -4.076265     3.144967    -2.139974
 H    -4.984715     3.243357    -2.732779
 C    -2.139406     4.165490    -1.112941
 H    -1.545427     5.053876    -0.904201
 C    -3.326097     4.271710    -1.829218
 H    -3.664010     5.253645    -2.168871
 C    -3.183393    -2.198798    -1.070782
 H    -2.302189    -2.413821    -1.676083
 C    -4.356353    -0.776804     0.468803
 H    -4.400609     0.129715     1.078311
 C    -4.255524    -3.093356    -1.050094
 H    -4.199654    -4.008747    -1.646381
 C    -5.422906    -1.663972     0.480574
 H    -6.299187    -1.445163     1.098497
 C    -5.393333    -2.842989    -0.281455
 C    -6.541235    -3.809441    -0.241103
 H    -6.595477    -4.320630     0.734417
 H    -7.504857    -3.296877    -0.387977
 H    -6.444932    -4.582819    -1.016279
 C    -2.024225     1.475587     2.240241
 H    -2.275222     2.403165     1.723854
 C    -1.476133    -0.861481     2.218468
 H    -1.271853    -1.781324     1.663683
 C    -2.026431     1.450731     3.636584
 H    -2.258395     2.367640     4.187262
 C    -1.495330    -0.884920     3.604872
 H    -1.287166    -1.822397     4.126883
 C    -1.759431     0.276288     4.343752
 C    -1.735021     0.247822     5.843551
 H    -2.386429    -0.545823     6.241948
 H    -0.717476     0.042310     6.216958
 H    -2.064435     1.204387     6.273892
 C     1.608764     0.130975     2.579797
 O     1.468257     1.444370     2.327314
 C     1.505269     2.349762     3.394961
 H     1.416364     3.351534     2.958215
 H     0.662851     2.188314     4.087497
 H     2.457818     2.288763     3.949105
 C     1.603607    -2.128945     1.741680
 O     1.473418    -2.906077     0.659130
 C     1.556706    -4.300656     0.754527
 H     1.418431    -4.676841    -0.265799
 H     0.761310    -4.710501     1.400259
 H     2.540980    -4.617398     1.139773
 C     1.683206    -2.633469     3.043443
 H     1.679760    -3.707261     3.225866
 C     1.706237    -0.366632     3.888159
 H     1.705320     0.311918     4.739076
 C     1.758303    -1.736841     4.103418
 H     1.828703    -2.116128     5.125765
 C     3.250964    -1.484599    -2.273279
 H     2.440114    -1.143464    -2.922779
 C     4.184154    -1.709812    -0.073833
 H     4.133148    -1.546190     1.005676
 C     4.356509    -2.142006    -2.808351
 H     4.413056    -2.303813    -3.888637
 C     5.280432    -2.376151    -0.610556
 H     6.075016    -2.724790     0.056112
 C     5.388386    -2.606804    -1.988483
 C     6.560335    -3.353315    -2.556132
 H     6.425131    -4.442824    -2.448756
 H     6.691183    -3.143700    -3.627456
 H     7.495328    -3.090515    -2.038812
 C     3.681934     1.599637     0.594821
 H     3.882124     0.897394     1.406706
 C     2.470825     2.231949    -1.370068
 H     1.697607     2.047045    -2.114877
 C     4.455011     2.747115     0.488150
 H     5.241348     2.933590     1.225757
 C     3.258373     3.378597    -1.485460
 H     3.085296     4.064538    -2.319655
 C     4.256892     3.665187    -0.554839
 C     5.109872     4.894513    -0.667429
 H     6.162891     4.630161    -0.857061
 H     4.775214     5.544168    -1.488302
 H     5.089649     5.484012     0.262848
