  96
scf done:    -3882.049540
 C     1.070133     0.244430     3.284543
 H     0.761627    -0.270355     4.202906
 H     2.161372     0.218995     3.182627
 C     0.452354     1.585295     3.082498
 H    -0.242732     1.905754     3.872023
 H     1.165642     2.396171     2.871505
 H    -0.236440     1.608520     2.137845
Co     0.004576    -0.063229     1.682234
 C     2.026934     1.234975    -0.758731
 C     3.339199    -0.671501     0.942200
 C     1.562339    -1.648041    -0.901520
 C    -1.998518    -1.080021    -0.898766
 C    -3.249642     0.526930     1.100700
 C    -1.584462     1.791295    -0.793969
 P    -1.622472     0.282227     0.264607
 P     1.669061    -0.234992     0.280944
 C    -0.666595    -1.493383     2.333617
 O    -1.035945    -2.521155     2.726860
 C     1.560537     1.387933    -2.067744
 H     1.060003     0.560123    -2.570928
 C     2.640730     2.333448    -0.136162
 H     2.989241     2.236721     0.897221
 C     1.731232     2.597790    -2.738375
 H     1.352099     2.707521    -3.757071
 C     2.837568     3.545153    -0.800891
 C     3.547955     4.685107    -0.129935
 H     3.550355     4.571385     0.963613
 H     4.599596     4.741840    -0.456789
 H     3.080925     5.651122    -0.373711
 C     2.372651     3.663683    -2.117762
 H     2.506977     4.606891    -2.654731
 C     3.383869    -1.636327     1.954002
 H     2.449207    -2.023731     2.367765
 C     4.538961    -0.186819     0.411646
 H     4.516426     0.552684    -0.392698
 C     4.611303    -2.097507     2.422813
 H     4.640787    -2.853623     3.211316
 C     5.778751    -0.632886     0.880414
 C     7.058873    -0.091749     0.311000
 H     7.718187    -0.903156    -0.035068
 H     6.868719     0.576580    -0.540596
 H     7.620893     0.480213     1.067216
 C     5.798590    -1.596505     1.895745
 H     6.758100    -1.960563     2.274480
 C     2.306074    -1.716793    -2.084165
 H     2.938186    -0.880401    -2.389820
 C     0.809477    -2.757370    -0.506643
 H     0.235859    -2.705939     0.419392
 C     2.252498    -2.866767    -2.868975
 H     2.823432    -2.913899    -3.799951
 C     0.776263    -3.930688    -1.263409
 C     0.001632    -5.125192    -0.789250
 H     0.679899    -5.946901    -0.506555
 H    -0.609624    -4.875790     0.088973
 H    -0.668039    -5.507853    -1.574394
 C     1.494616    -3.963265    -2.463757
 H     1.469837    -4.864482    -3.083440
 C    -1.440161    -1.135843    -2.180997
 H    -0.825579    -0.313598    -2.547857
 C    -2.758229    -2.160097    -0.439693
 H    -3.180091    -2.131092     0.568897
 C    -1.668725    -2.242343    -2.991400
 H    -1.228767    -2.281527    -3.990277
 C    -2.991550    -3.282190    -1.242345
 C    -3.795659    -4.434063    -0.713867
 H    -3.251369    -4.956367     0.089729
 H    -4.750549    -4.093089    -0.285515
 H    -4.016349    -5.168277    -1.501389
 C    -2.443368    -3.303718    -2.528539
 H    -2.619291    -4.169561    -3.172924
 C    -3.285319     0.644402     2.489488
 H    -2.353185     0.543730     3.050659
 C    -4.441627     0.625785     0.371799
 H    -4.420620     0.526647    -0.716545
 C    -4.501700     0.864625     3.137336
 H    -4.528631     0.954973     4.226048
 C    -5.666206     0.838607     1.005045
 C    -6.941412     0.936229     0.218547
 H    -7.430111     1.911592     0.371819
 H    -6.759406     0.816280    -0.858499
 H    -7.661545     0.162056     0.527955
 C    -5.677800     0.959840     2.403168
 H    -6.627959     1.127515     2.918804
 C    -2.290115     1.910206    -1.996653
 H    -2.845011     1.061059    -2.399673
 C    -0.882053     2.900629    -0.312651
 H    -0.300491     2.805495     0.606077
 C    -2.276980     3.116455    -2.693860
 H    -2.819449     3.200385    -3.638955
 C    -0.886353     4.125951    -0.981979
 C    -0.176158     5.318126    -0.412148
 H    -0.897071     6.042358     0.001952
 H     0.508757     5.026088     0.395396
 H     0.409388     5.842778    -1.181933
 C    -1.586398     4.215146    -2.190361
 H    -1.589101     5.158795    -2.743459
