  96
scf done:    -4254.519981
 C    -0.711514    -3.600827    -0.283831
 H    -0.284225    -4.491083     0.192870
 H    -1.804375    -3.605695    -0.195034
 C    -0.173383    -3.299730    -1.642735
 H     0.583049    -4.007165    -2.011794
 H    -0.942210    -3.145896    -2.414167
 H     0.400241    -2.274384    -1.686906
Co     0.211577    -1.913885     0.018862
 O    -1.848347     0.308585    -1.157124
 C    -3.154089    -1.451776     0.439499
 C    -1.398352     0.536694     1.549026
 O     1.943671     0.456589     1.235402
 C     3.289955    -0.852837    -0.795801
 C     1.249253     1.053763    -1.304476
 P     1.644972    -0.344537    -0.211745
 P    -1.521631    -0.671117     0.181890
 C     0.940210    -2.531058     1.434353
 O     1.346828    -2.898592     2.455884
 C    -2.936604     1.011502    -1.557747
 C    -2.886086     1.506681    -2.867265
 H    -2.001818     1.283833    -3.465458
 C    -4.057312     1.278436    -0.762967
 H    -4.115499     0.893837     0.254559
 C    -3.933777     2.270401    -3.369696
 H    -3.873429     2.653289    -4.391757
 C    -5.103083     2.041956    -1.281367
 H    -5.972221     2.243312    -0.650130
 C    -5.051361     2.545328    -2.579294
 H    -5.875928     3.143046    -2.973795
 C    -3.754363    -1.568228     1.700358
 H    -3.276855    -1.119433     2.574678
 C    -3.796937    -2.031963    -0.657646
 H    -3.351397    -1.950705    -1.653202
 C    -4.961190    -2.233852     1.854277
 H    -5.438220    -2.325607     2.831864
 C    -5.013883    -2.695787    -0.519037
 H    -5.491455    -3.122551    -1.401122
 C    -5.604635    -2.801279     0.745610
 O    -6.776314    -3.420497     0.988097
 C    -7.464826    -4.004887    -0.081167
 H    -6.873218    -4.802506    -0.564495
 H    -8.379008    -4.445850     0.336103
 H    -7.745666    -3.259389    -0.846192
 C    -0.871732     0.091170     2.774204
 H    -0.583050    -0.955124     2.893638
 C    -1.688555     1.895343     1.413730
 H    -2.062939     2.285375     0.467168
 C    -0.681563     0.964685     3.830928
 H    -0.269509     0.622277     4.781685
 C    -1.482511     2.790072     2.464440
 H    -1.715852     3.844650     2.315199
 C    -0.981544     2.326576     3.685483
 O    -0.749582     3.106916     4.758137
 C    -0.997775     4.480240     4.660186
 H    -2.060927     4.692880     4.449145
 H    -0.735144     4.918364     5.631449
 H    -0.379913     4.954272     3.876811
 C     3.182125     0.834922     1.666961
 C     3.620890     2.146331     1.480281
 H     2.970649     2.857693     0.968508
 C     3.993426    -0.096338     2.317976
 H     3.617898    -1.111587     2.460831
 C     4.882998     2.520366     1.938611
 H     5.226890     3.547153     1.790979
 C     5.254080     0.286404     2.766768
 H     5.890090    -0.444920     3.271332
 C     5.705329     1.593071     2.576867
 H     6.695798     1.888878     2.929707
 C     4.257160     0.071313    -1.229798
 H     4.012050     1.134699    -1.273472
 C     3.625672    -2.207247    -0.765801
 H     2.868828    -2.924973    -0.436679
 C     5.520723    -0.351375    -1.599196
 H     6.284579     0.355035    -1.928838
 C     4.892975    -2.648265    -1.141490
 H     5.120623    -3.713678    -1.106086
 C     5.852184    -1.715976    -1.553612
 O     7.103937    -2.031676    -1.927379
 C     7.503124    -3.374361    -1.897448
 H     6.898275    -3.997276    -2.579491
 H     8.548934    -3.398485    -2.228439
 H     7.440174    -3.797555    -0.879722
 C     1.265753     0.870299    -2.695539
 H     1.676333    -0.050888    -3.119416
 C     0.724175     2.239264    -0.793242
 H     0.695392     2.388123     0.287585
 C     0.754917     1.837762    -3.543945
 H     0.754945     1.704395    -4.627535
 C     0.193267     3.215275    -1.635715
 H    -0.233133     4.119492    -1.200906
 C     0.186063     3.008270    -3.018235
 O    -0.356385     3.857007    -3.911789
 C    -1.070613     4.965248    -3.436415
 H    -0.422497     5.664934    -2.879619
 H    -1.470467     5.482309    -4.317933
 H    -1.910473     4.656444    -2.789753
