 104
scf done:    -3587.053142
 C     0.918969     1.109831    -3.185492
 H     0.967729     2.148165    -3.536297
 H     1.882405     0.612561    -3.367213
 C    -0.272493     0.348344    -3.668572
 H    -0.987148     0.936204    -4.260519
 H    -0.038573    -0.584865    -4.204260
 H    -0.919696    -0.038935    -2.781266
Co     0.002821     0.742350    -1.510951
 C     1.848334    -2.088189    -0.241937
 C     3.348398     0.205490    -1.030315
 C     1.648820     0.368164     1.259001
 C    -1.536518    -1.471747     0.741520
 C    -2.090660     1.336008     1.128140
 C    -3.244062    -0.039791    -1.092183
 P    -1.634656     0.120899    -0.189915
 P     1.639553    -0.263393    -0.482521
 C     0.014233     2.397482    -1.080550
 O     0.200346     3.483884    -0.712491
 C     1.779787    -2.673449     1.030854
 H     1.599365    -2.054842     1.909244
 C     2.013110    -2.933863    -1.362093
 C     2.054001    -2.396443    -2.762448
 H     3.082742    -2.151696    -3.073589
 H     1.458464    -1.476651    -2.844418
 H     1.663383    -3.132174    -3.480014
 C     1.905632    -4.046675     1.212593
 H     1.842186    -4.466039     2.219219
 C     2.128892    -4.314161    -1.162662
 H     2.251726    -4.961600    -2.036001
 C     2.087771    -4.875507     0.110040
 H     2.184557    -5.956543     0.236679
 H     3.504397    -0.218206    -2.034443
 H     4.065102    -0.297160    -0.362978
 C     3.567065     1.710765    -1.073250
 H     2.788096     2.161323    -1.706325
 H     3.419475     2.147925    -0.069595
 C     4.942692     2.137622    -1.590795
 H     5.079811     1.673915    -2.586474
 C     4.988881     3.650729    -1.769425
 H     4.193737     3.999108    -2.446429
 H     5.955708     3.979875    -2.181344
 H     4.846743     4.162178    -0.802664
 C     6.078020     1.661830    -0.690724
 H     7.056532     1.986721    -1.077524
 H     6.106657     0.565507    -0.600890
 H     5.968521     2.077610     0.325599
 H     0.790904    -0.115924     1.754726
 H     1.372191     1.428659     1.161825
 C     2.911467     0.218167     2.099654
 H     3.370323    -0.770286     1.936552
 H     3.665127     0.953586     1.768662
 C     2.673014     0.400585     3.601089
 H     1.944868    -0.373752     3.913353
 C     3.963494     0.167646     4.377278
 H     4.385469    -0.827406     4.166218
 H     3.800794     0.242549     5.463774
 H     4.725012     0.916634     4.102651
 C     2.072636     1.763055     3.930725
 H     1.925546     1.880461     5.015587
 H     1.096202     1.914938     3.446346
 H     2.739259     2.575297     3.594948
 C    -1.506314    -1.480497     2.143291
 H    -1.541461    -0.541610     2.697310
 C    -1.456955    -2.704254     0.052868
 C    -1.414839    -2.784463    -1.443770
 H    -0.830704    -1.946100    -1.853082
 H    -2.424333    -2.744311    -1.884689
 H    -0.944491    -3.722478    -1.767079
 C    -1.434928    -2.669704     2.865053
 H    -1.413651    -2.641887     3.957097
 C    -1.407123    -3.888024     0.795278
 H    -1.342161    -4.837890     0.258454
 C    -1.403390    -3.883202     2.186126
 H    -1.356116    -4.825794     2.736513
 H    -1.150607     1.588650     1.645978
 H    -2.750439     0.857228     1.866450
 C    -2.738996     2.602480     0.575144
 H    -2.328880     2.832729    -0.420544
 H    -3.819920     2.427825     0.427594
 C    -2.547353     3.833386     1.462270
 H    -1.456927     3.976788     1.575349
 C    -3.104816     5.071957     0.772885
 H    -2.617429     5.232153    -0.200986
 H    -2.946877     5.975610     1.381769
 H    -4.189626     4.973295     0.598045
 C    -3.154440     3.646882     2.847871
 H    -3.001194     4.540247     3.472975
 H    -2.711829     2.792036     3.382154
 H    -4.241795     3.471689     2.779214
 H    -3.068690    -0.672085    -1.975674
 H    -3.430021     0.971235    -1.487166
 C    -4.419921    -0.561460    -0.282810
 H    -4.174804    -1.567486     0.096781
 H    -4.570936     0.066614     0.613859
 C    -5.740390    -0.629271    -1.055604
 H    -5.559711    -1.229690    -1.967745
 C    -6.800773    -1.345018    -0.226794
 H    -6.473548    -2.356701     0.059274
 H    -7.748576    -1.439122    -0.779166
 H    -7.011290    -0.788826     0.702061
 C    -6.228898     0.748638    -1.489142
 H    -7.180701     0.678422    -2.037963
 H    -5.508670     1.260024    -2.145151
 H    -6.398721     1.395128    -0.611314
