 106
scf done:    -4261.229434
 C     0.753486     1.387404    -3.099010
 H     1.839222     1.526123    -3.021820
 H     0.479310     1.162883    -4.137099
 C    -0.070135     2.456767    -2.459861
 H     0.508162     3.338230    -2.146834
 H    -0.941664     2.774124    -3.048836
 H    -0.527176     2.115003    -1.446254
Co    -0.137789     0.407442    -1.669062
 C    -1.585121     0.536795     1.453973
 C    -3.357523     1.012747    -0.916046
 C    -2.554104    -1.681523    -0.322580
 C     1.834445    -0.402561     1.277950
 C     2.747059    -1.401912    -1.170921
 C     3.020452     1.426228    -0.811198
 P     1.776073     0.060847    -0.530642
 P    -1.872450     0.045708    -0.298085
 C    -0.662802    -0.597874    -2.932831
 O    -0.960175    -1.218351    -3.870641
 C    -1.462291    -0.357582     2.533766
 O    -1.695941    -1.657280     2.280221
 C    -2.009374    -2.527962     3.328865
 H    -1.135588    -2.737209     3.968444
 H    -2.825018    -2.126799     3.955407
 H    -2.344139    -3.462702     2.859442
 C    -1.352871     1.903888     1.710876
 O    -1.534942     2.724659     0.655927
 C    -1.603533     4.109942     0.845641
 H    -1.844603     4.542625    -0.133443
 H    -0.647482     4.528101     1.198338
 H    -2.396186     4.376634     1.565552
 C    -1.006043     2.367933     2.980263
 H    -0.831574     3.428433     3.157273
 C    -1.128973     0.101536     3.814858
 H    -1.026197    -0.602956     4.638565
 C    -0.894402     1.452997     4.022866
 H    -0.618846     1.803240     5.020188
 C    -3.499048     0.873063    -2.308672
 H    -2.799625     0.235249    -2.847863
 C    -4.295625     1.818479    -0.230044
 C    -4.387375     2.031666     1.257383
 H    -4.130621     3.069094     1.521123
 H    -3.742866     1.373749     1.841747
 H    -5.424065     1.869858     1.589681
 C    -4.498493     1.513967    -3.028481
 H    -4.567284     1.365876    -4.108492
 C    -5.283205     2.476480    -0.983258
 H    -6.000700     3.105454    -0.447444
 C    -5.393298     2.344222    -2.359878
 H    -6.180079     2.873791    -2.902689
 C    -1.765945    -2.609538    -1.006973
 H    -0.795094    -2.277658    -1.372462
 C    -3.791692    -2.103500     0.216041
 C    -4.690862    -1.213630     1.014108
 H    -5.199936    -0.479712     0.371938
 H    -4.127718    -0.650629     1.769819
 H    -5.461231    -1.803364     1.530222
 C    -2.179802    -3.924390    -1.204712
 H    -1.542775    -4.616500    -1.760691
 C    -4.187313    -3.430116     0.014032
 H    -5.145332    -3.755635     0.429490
 C    -3.404395    -4.337632    -0.696303
 H    -3.753672    -5.362536    -0.845057
 C     2.428704     0.308949     2.338286
 O     3.043831     1.461533     2.023906
 C     3.745778     2.181432     2.992037
 H     4.187705     3.041755     2.471450
 H     3.081819     2.547045     3.795530
 H     4.555807     1.581735     3.442311
 C     1.326956    -1.682636     1.581202
 O     0.813871    -2.370523     0.549536
 C     0.761456    -3.769359     0.610935
 H     0.634550    -4.122841    -0.419041
 H    -0.093728    -4.118730     1.212888
 H     1.700539    -4.182682     1.014844
 C     1.403559    -2.228039     2.868384
 H     1.026488    -3.231407     3.061138
 C     2.462915    -0.205258     3.641224
 H     2.916074     0.368214     4.448273
 C     1.955730    -1.473238     3.893364
 H     2.003949    -1.882919     4.905304
 C     2.239899    -2.025873    -2.313945
 H     1.348559    -1.602392    -2.774636
 C     3.915943    -1.922596    -0.565839
 C     4.603700    -1.317805     0.627199
 H     4.202196    -1.722669     1.569908
 H     4.492868    -0.227312     0.667935
 H     5.678147    -1.551347     0.596702
 C     2.829710    -3.164027    -2.855967
 H     2.402466    -3.623158    -3.750680
 C     4.489540    -3.074253    -1.123436
 H     5.393418    -3.479910    -0.659359
 C     3.958833    -3.701518    -2.246684
 H     4.437821    -4.597359    -2.650025
 C     4.151817     1.163500    -1.597948
 H     4.352313     0.143758    -1.927276
 C     2.759280     2.765509    -0.447992
 C     1.562139     3.173012     0.351481
 H     1.834664     3.420528     1.386838
 H     0.812722     2.374689     0.387457
 H     1.096834     4.063367    -0.094380
 C     5.030987     2.171424    -1.985553
 H     5.902443     1.922150    -2.595630
 C     3.652804     3.766124    -0.846147
 H     3.438923     4.799719    -0.556908
 C     4.786585     3.485119    -1.601629
 H     5.463695     4.289293    -1.899848
