  56
scf done:    -2958.549335
 C     3.889033     0.921228    -0.036320
 H     4.802401     0.321572    -0.130339
 H     3.928475     1.758582    -0.745422
 C     3.536327     1.298297     1.367008
 H     4.221110     0.913846     2.135503
 H     3.386446     2.377721     1.523232
 H     2.492131     0.874631     1.687258
Co     2.232334    -0.060555     0.230417
 C    -0.736352     1.541345    -0.713773
 C     1.556013     3.049061    -1.204023
 C     1.098828     0.748899    -2.775186
 C    -0.804699    -1.613096     0.248764
 C     1.163286    -2.804180     1.887618
 C    -0.055450    -0.415038     2.768583
 P     0.663398    -1.153537     1.249716
 P     1.057788     1.277770    -1.019446
 C     2.921037    -1.457362    -0.453478
 O     3.347516    -2.376807    -1.020980
 C    -1.749403     1.160912    -1.595966
 H    -1.508860     0.679967    -2.545028
 C    -1.094830     2.130716     0.507027
 H    -0.304165     2.416899     1.209700
 C    -3.085668     1.371088    -1.255705
 H    -3.872981     1.057453    -1.945708
 C    -2.425940     2.354665     0.860827
 C    -2.784745     3.002275     2.167211
 H    -1.915859     3.067999     2.837643
 H    -3.162405     4.026258     2.012665
 H    -3.576367     2.442665     2.689146
 C    -3.423251     1.964216    -0.044263
 H    -4.474944     2.126579     0.209357
 H     1.491247     3.556827    -0.230753
 H     2.596932     3.108448    -1.552295
 H     0.903771     3.569559    -1.920453
 H     0.569803     1.441205    -3.448433
 H     2.157179     0.685843    -3.065864
 H     0.668339    -0.258140    -2.863289
 C    -0.567987    -2.168378    -1.017780
 H     0.458259    -2.309284    -1.367267
 C    -2.120159    -1.434041     0.675718
 H    -2.325012    -0.985906     1.650643
 C    -1.637409    -2.540131    -1.824078
 H    -1.450074    -2.977875    -2.807823
 C    -3.207862    -1.797241    -0.129931
 C    -4.610337    -1.583111     0.358174
 H    -4.811849    -2.175234     1.265160
 H    -4.776182    -0.525286     0.615879
 H    -5.351448    -1.869243    -0.401243
 C    -2.948508    -2.351847    -1.384840
 H    -3.784524    -2.639175    -2.028530
 H     1.530015    -3.412569     1.049057
 H     1.993990    -2.671083     2.596674
 H     0.326735    -3.322026     2.380589
 H    -0.747334    -1.102424     3.277939
 H     0.773764    -0.177868     3.451093
 H    -0.581042     0.516324     2.519928
