 116
scf done:    -4640.453582
 C    -0.532932     1.793694     2.704161
 H    -1.614770     1.798466     2.877488
 H    -0.002557     1.772742     3.664270
 C    -0.029324     2.795962     1.724850
 H    -0.800598     3.491056     1.364407
 H     0.870748     3.343841     2.038613
 H     0.271931     2.303806     0.707992
Co     0.161614     0.651172     1.297734
 C     2.504546     1.367572    -1.217483
 C     3.565720     0.090662     0.883458
 C     1.755760    -1.464899    -0.780605
 C    -1.744125    -1.677409    -0.275209
 C    -3.126826     0.319772     1.471259
 C    -2.650209     0.859562    -1.195630
 P    -1.736106     0.104466     0.249175
 P     1.897974     0.162987     0.049913
 C     0.583425    -0.448960     2.510034
 O     0.842318    -1.171446     3.383458
 C     2.849961     1.086059    -2.541328
 H     2.728498     0.078666    -2.936982
 C     2.746316     2.652548    -0.716311
 H     2.515491     2.865238     0.331797
 C     3.386288     2.089002    -3.345752
 H     3.652998     1.863848    -4.381886
 C     3.297749     3.665569    -1.507368
 C     3.521188     5.035887    -0.934892
 H     2.567701     5.576960    -0.814553
 H     3.987352     4.981009     0.060521
 H     4.168410     5.644330    -1.582462
 C     3.605073     3.369398    -2.839521
 H     4.033433     4.144768    -3.480911
 C     4.657720    -0.564311     0.276105
 O     4.453928    -1.021611    -0.971825
 C     5.410715    -1.822423    -1.597723
 H     4.975529    -2.129153    -2.557515
 H     6.349670    -1.272634    -1.785972
 H     5.636426    -2.727022    -1.006387
 C     3.792941     0.706010     2.127308
 O     2.820422     1.504384     2.607466
 C     2.860442     1.911405     3.946175
 H     1.930654     2.463553     4.129158
 H     3.716867     2.577690     4.150919
 H     2.899492     1.044869     4.627384
 C     5.006121     0.529395     2.811509
 H     5.158697     0.978088     3.791838
 C     5.876219    -0.730714     0.942183
 H     6.702198    -1.261055     0.469807
 C     6.027407    -0.198178     2.217911
 H     6.973157    -0.330747     2.749037
 C     2.218719    -2.641526    -0.163933
 O     2.678574    -2.495735     1.090194
 C     3.109022    -3.601868     1.824338
 H     3.359776    -3.225250     2.823564
 H     2.314770    -4.363087     1.916316
 H     4.004794    -4.069057     1.377704
 C     1.054091    -1.595313    -1.988516
 O     0.433594    -0.483953    -2.429054
 C    -0.164780    -0.482207    -3.692267
 H    -0.590552     0.517804    -3.834300
 H    -0.979146    -1.222292    -3.757443
 H     0.572418    -0.682012    -4.490456
 C     1.013482    -2.819092    -2.670328
 H     0.494962    -2.906572    -3.623875
 C     2.189192    -3.867876    -0.832843
 H     2.589924    -4.766658    -0.365278
 C     1.604907    -3.935478    -2.094191
 H     1.570274    -4.892262    -2.620405
 C    -1.058099    -2.612717     0.510029
 H    -0.567525    -2.290944     1.427457
 C    -2.316090    -2.121535    -1.469935
 H    -2.816861    -1.411107    -2.127068
 C    -1.029603    -3.953587     0.146862
 H    -0.504482    -4.671672     0.781916
 C    -2.271595    -3.463073    -1.865901
 C    -2.856028    -3.884999    -3.183742
 H    -3.659602    -3.205868    -3.505225
 H    -2.088382    -3.882244    -3.977790
 H    -3.267369    -4.904636    -3.139110
 C    -1.639882    -4.383991    -1.029618
 H    -1.601073    -5.439738    -1.313574
 C    -3.680942     1.606492     1.597546
 O    -3.100028     2.576604     0.854431
 C    -3.777634     3.773892     0.615349
 H    -3.194464     4.315096    -0.141733
 H    -4.791181     3.592141     0.217617
 H    -3.851852     4.399379     1.522722
 C    -3.623153    -0.677362     2.328018
 O    -3.019666    -1.875081     2.264466
 C    -3.509336    -2.958593     2.991955
 H    -2.887480    -3.819602     2.712484
 H    -4.561077    -3.182875     2.739093
 H    -3.430528    -2.795498     4.081441
 C    -4.699953    -0.427559     3.190294
 H    -5.086475    -1.217784     3.833041
 C    -4.762778     1.868290     2.446457
 H    -5.187087     2.869750     2.512296
 C    -5.269415     0.839817     3.231582
 H    -6.109392     1.033608     3.902869
 C    -2.067075     1.875337    -1.976640
 O    -0.792354     2.206673    -1.708630
 C    -0.185425     3.226444    -2.451683
 H     0.835915     3.322185    -2.071705
 H    -0.136681     2.978652    -3.526354
 H    -0.714511     4.188705    -2.332393
 C    -4.004062     0.545467    -1.448265
 O    -4.543601    -0.429826    -0.696140
 C    -5.921405    -0.652139    -0.702534
 H    -6.115466    -1.396721     0.080142
 H    -6.274322    -1.050380    -1.670703
 H    -6.482703     0.267995    -0.464308
 C    -4.744391     1.204771    -2.438998
 H    -5.786125     0.943617    -2.621612
 C    -2.798725     2.529330    -2.982504
 H    -2.338260     3.309215    -3.586162
 C    -4.127344     2.188955    -3.199647
 H    -4.693895     2.703344    -3.979897
