 102
scf done:    -4333.246648
 C     0.900564     1.280645    -3.535120
 H     1.743009     1.927488    -3.266615
 H     1.115387     0.726788    -4.455938
 C    -0.455410     1.896416    -3.469799
 H    -0.457076     2.982742    -3.303147
 H    -1.118726     1.637647    -4.304913
 H    -1.054933     1.565794    -2.516486
Co     0.079501     0.304858    -2.062906
 O    -1.098417    -1.260012     0.570617
 O    -2.383401     0.727792    -0.171044
 O    -2.497026    -1.421604    -1.571340
 O     2.747828     1.770237    -1.102425
 O     0.862640     1.999491     0.654645
 O     2.022377    -0.039220     0.533114
 P     1.381295     0.998260    -0.577659
 P    -1.425579    -0.421741    -0.812085
 C     0.372979    -1.157522    -2.925857
 O     0.660182    -2.115860    -3.498292
 C    -0.210165    -2.309144     0.644194
 C    -0.111905    -3.275441    -0.352830
 H    -0.756294    -3.229561    -1.231851
 C     0.587541    -2.389402     1.783705
 H     0.503246    -1.610658     2.542753
 C     0.825124    -4.299883    -0.216676
 H     0.912224    -5.042068    -1.014463
 C     1.505318    -3.423514     1.906259
 H     2.144146    -3.465600     2.792312
 C     1.654737    -4.390648     0.902759
 C     2.705494    -5.455158     1.017324
 H     2.550724    -6.256474     0.281020
 H     2.714829    -5.909033     2.020084
 H     3.705307    -5.025211     0.841189
 C    -3.351676     0.698148     0.804508
 C    -4.633256     1.099582     0.446005
 H    -4.820417     1.373488    -0.593622
 C    -3.049180     0.348092     2.120170
 H    -2.036090     0.044368     2.378682
 C    -5.662135     1.121892     1.392271
 C    -7.052512     1.504126     0.978968
 H    -7.060683     2.461944     0.436541
 H    -7.474320     0.743042     0.302496
 H    -7.721602     1.595957     1.845689
 C    -4.068907     0.382686     3.066969
 H    -3.847504     0.111890     4.102234
 C    -5.363511     0.758932     2.710204
 H    -6.154096     0.774038     3.464679
 C    -3.771909    -1.704249    -1.133250
 C    -3.998344    -2.326005     0.091477
 H    -3.149315    -2.604937     0.716580
 C    -4.832017    -1.344323    -1.963019
 H    -4.617252    -0.871099    -2.922549
 C    -5.305843    -2.549072     0.536024
 C    -5.543686    -3.139805     1.894084
 H    -4.854697    -3.973009     2.097112
 H    -5.374827    -2.377384     2.672380
 H    -6.573457    -3.508350     2.001469
 C    -6.133074    -1.589320    -1.535240
 H    -6.973828    -1.314511    -2.176960
 C    -6.369437    -2.175105    -0.292291
 H    -7.395845    -2.350542     0.040129
 C     3.916746     1.904465    -0.390398
 C     5.078895     1.385659    -0.957621
 H     5.015834     0.895991    -1.930689
 C     3.955423     2.512651     0.862318
 H     3.037241     2.903314     1.301299
 C     6.277712     1.457810    -0.258540
 H     7.180578     1.030480    -0.703273
 C     5.165135     2.570190     1.551056
 H     5.188804     3.034892     2.540914
 C     6.344091     2.043751     1.011838
 C     7.644925     2.128824     1.757268
 H     8.195735     3.047867     1.494915
 H     8.302000     1.279018     1.519461
 H     7.486456     2.144132     2.845570
 C    -0.024375     3.010099     0.407660
 C    -1.087075     3.167207     1.291816
 H    -1.172111     2.471349     2.128083
 C     0.133678     3.877075    -0.675680
 H     0.997559     3.772839    -1.335376
 C    -2.040792     4.169101     1.095546
 C    -3.199451     4.297672     2.041147
 H    -2.853422     4.465341     3.073145
 H    -3.854900     5.134699     1.762932
 H    -3.804222     3.376784     2.048480
 C    -0.814217     4.878225    -0.875707
 H    -0.702770     5.562556    -1.720625
 C    -1.894259     5.020353    -0.006546
 H    -2.631655     5.808432    -0.179050
 C     3.072554    -0.893625     0.323006
 C     4.018637    -0.971773     1.341626
 H     3.883722    -0.337043     2.219579
 C     3.196931    -1.668222    -0.828109
 H     2.440949    -1.621417    -1.608968
 C     5.128925    -1.809096     1.221053
 C     6.170875    -1.836714     2.301133
 H     6.741755    -0.893656     2.311218
 H     5.716012    -1.949074     3.297176
 H     6.883725    -2.660489     2.155405
 C     4.301251    -2.507439    -0.949217
 H     4.406418    -3.120740    -1.847363
 C     5.261091    -2.578176     0.058397
 H     6.125675    -3.237330    -0.056542
