  64
scf done:    -4106.425316
 C     2.973197    -3.397849    -0.416775
 H     3.980133    -3.644495    -0.059664
 H     2.292295    -4.228212    -0.194055
 C     2.916644    -2.896696    -1.823806
 H     3.889335    -2.837335    -2.331903
 H     2.198957    -3.426842    -2.467150
 H     2.525362    -1.794125    -1.888272
Co     2.382120    -1.559643    -0.160138
 O    -0.787757    -0.986058    -0.439812
 C    -0.390777    -3.659849     0.123824
 C    -0.030209    -1.605931     2.122166
 O     1.145252     1.220498     0.712996
 C     3.568520     1.587079    -0.475842
 C     1.241413     0.974055    -2.081326
 P     2.077691     0.517563    -0.503356
 P     0.355740    -1.983619     0.364801
 C     3.587269    -1.323619     1.027790
 O     4.338745    -1.202219     1.900595
 C    -2.139041    -1.097081    -0.406958
 C    -2.889279    -0.538251     0.634047
 H    -2.377261    -0.024070     1.448525
 C    -2.799298    -1.721704    -1.470078
 H    -2.205595    -2.131413    -2.289413
 C    -4.278004    -0.634022     0.628888
 H    -4.867148    -0.203544     1.440288
 C    -4.186433    -1.820178    -1.480129
 H    -4.705009    -2.311992    -2.304712
 C    -4.921996    -1.281653    -0.424331
Cl    -6.650171    -1.405592    -0.429916
 H     0.435334    -4.359236     0.328251
 C    -1.621202    -4.072072     0.920248
 H    -2.481646    -3.412228     0.745544
 H    -1.419161    -4.080412     2.001323
 H    -0.572321    -3.739967    -0.961985
 H    -1.927560    -5.092244     0.640684
 H    -1.103581    -1.763844     2.311018
 C     0.818845    -2.417750     3.090505
 H     1.889990    -2.230260     2.933659
 H     0.652249    -3.500897     2.979451
 H     0.179153    -0.529753     2.227160
 H     0.576282    -2.153134     4.130872
 C     0.497125     2.414421     0.633537
 C    -0.815075     2.457935     0.155784
 H    -1.285651     1.530923    -0.171870
 C     1.116497     3.585751     1.075063
 H     2.131588     3.534836     1.472686
 C    -1.497134     3.668489     0.094616
 H    -2.520677     3.710897    -0.281227
 C     0.438037     4.799923     1.014732
 H     0.913381     5.721147     1.355438
 C    -0.864508     4.837394     0.518156
Cl    -1.709273     6.348330     0.438618
 H     3.974535     1.490741     0.544252
 C     4.594051     1.132156    -1.504321
 H     4.237760     1.285548    -2.535137
 H     4.809214     0.059232    -1.380372
 H     3.283521     2.641159    -0.621902
 H     5.538238     1.685735    -1.394371
 H     0.204909     0.623308    -1.954930
 C     1.314531     2.405527    -2.592664
 H     2.350280     2.715292    -2.796833
 H     0.881571     3.126899    -1.886597
 H     1.688055     0.282324    -2.816312
 H     0.756328     2.496388    -3.537320
