  80
scf done:    -4391.873220
 C    -0.835591    -3.744202    -0.133390
 H    -0.420026    -4.573789     0.449886
 H    -1.931258    -3.778799    -0.131743
 C    -0.198222    -3.529805    -1.459423
 H     0.645971    -4.195482    -1.684566
 H    -0.904274    -3.513887    -2.302772
 H     0.271982    -2.452605    -1.570875
Co     0.015686    -2.002754     0.100220
 O    -1.967712     0.241930    -1.341366
 C    -3.353240    -1.703993    -0.117365
 C    -2.094472     0.334442     1.398834
 O     1.989363     0.190342     1.283861
 C     3.277542    -1.744028    -0.109265
 C     2.027048     0.407201    -1.470218
 P     1.739321    -0.753720    -0.095619
 P    -1.762295    -0.804798     0.008543
 C     0.471274    -2.515603     1.666471
 O     0.701599    -2.855303     2.746352
 C    -2.644581     1.425059    -1.324006
 C    -3.978252     1.492099    -1.733618
 H    -4.488096     0.581312    -2.049741
 C    -1.985071     2.588353    -0.915849
 H    -0.942688     2.520284    -0.601019
 C    -4.652516     2.711153    -1.722109
 H    -5.695130     2.787188    -2.036148
 C    -2.653104     3.807859    -0.900378
 H    -2.158048     4.725614    -0.578430
 C    -3.983638     3.853650    -1.300692
 F    -4.629954     5.019166    -1.283622
 C    -3.966279    -2.242530     1.021136
 H    -3.559908    -2.025324     2.012349
 C    -3.871815    -2.023593    -1.377988
 H    -3.386120    -1.626664    -2.272771
 C    -5.090417    -3.055315     0.909529
 H    -5.582994    -3.475565     1.788230
 C    -4.996908    -2.834516    -1.505013
 H    -5.416915    -3.085909    -2.480706
 C    -5.594094    -3.337671    -0.355371
 F    -6.670232    -4.111730    -0.468006
 C    -3.358359     0.902515     1.625379
 H    -4.208950     0.611358     1.006412
 C    -1.023498     0.719745     2.213351
 H    -0.037028     0.281870     2.051229
 C    -3.545171     1.845949     2.628070
 H    -4.519449     2.302000     2.811829
 C    -1.196475     1.665017     3.221022
 H    -0.368194     1.974704     3.860792
 C    -2.456224     2.218739     3.410494
 F    -2.630526     3.125089     4.366911
 C     2.747288     1.326955     1.326545
 C     2.152770     2.554856     1.027695
 H     1.097229     2.578207     0.751978
 C     4.092921     1.271025     1.693216
 H     4.545338     0.307268     1.929749
 C     2.902057     3.725486     1.077705
 H     2.460445     4.695747     0.844369
 C     4.847967     2.440551     1.744311
 H     5.901942     2.424801     2.027460
 C     4.244799     3.652713     1.430961
 F     4.967948     4.770366     1.474625
 C     3.863058    -2.161952    -1.310305
 H     3.467216    -1.807021    -2.265198
 C     3.796850    -2.223297     1.101661
 H     3.329288    -1.930099     2.044438
 C     4.956916    -3.024251    -1.308408
 H     5.427006    -3.355294    -2.236142
 C     4.894817    -3.075886     1.117202
 H     5.313919    -3.452190     2.052119
 C     5.461715    -3.466137    -0.091962
 F     6.510255    -4.283788    -0.082459
 C     3.280546     0.997107    -1.707659
 H     4.141486     0.724819    -1.094336
 C     0.942610     0.765529    -2.278880
 H    -0.039160     0.321307    -2.098782
 C     3.442061     1.934651    -2.718870
 H     4.405788     2.408663    -2.912447
 C     1.093403     1.701982    -3.299083
 H     0.254354     1.994458    -3.932775
 C     2.341246     2.276865    -3.500619
 F     2.494462     3.175236    -4.466516
