  90
scf done:    -4572.872422
 C     0.016949    -3.514878    -0.222305
 H    -0.179514    -4.255672    -1.004642
 H     1.006956    -3.683924     0.219091
 C    -1.090551    -3.293239     0.748956
 H    -2.002542    -3.869968     0.547515
 H    -0.794221    -3.382538     1.804119
 H    -1.480191    -2.184366     0.742026
Co    -0.506941    -1.676496    -0.620678
 O     2.143949    -1.479080     1.276691
 O     2.538587    -1.621852    -1.157136
 O     1.690990     0.601370    -0.152231
 O    -1.568470     0.980235    -1.973200
 O    -3.226439    -0.055091    -0.308290
 O    -1.327024     1.249083     0.540748
 P    -1.599949     0.094410    -0.592843
 P     1.389213    -1.024666    -0.153590
 C    -0.795723    -2.068607    -2.286280
 O    -0.880302    -2.318603    -3.405139
 C     1.446030    -1.582427     2.447520
 C     0.485344    -0.639102     2.817476
 H     0.266411     0.205679     2.160506
 C     1.755500    -2.677259     3.271805
 C     2.797510    -3.665040     2.846634
 H     2.556880    -4.102862     1.865367
 H     3.782725    -3.184181     2.739823
 H     2.890404    -4.479790     3.577049
 C    -0.189652    -0.786682     4.029715
 H    -0.930008    -0.040055     4.325129
 C     1.061678    -2.796930     4.478108
 H     1.288992    -3.643725     5.131377
 C     0.094143    -1.867091     4.860019
 H    -0.429676    -1.984046     5.811156
 C     3.849935    -1.253900    -1.321967
 C     4.763249    -1.247649    -0.266481
 H     4.430240    -1.529983     0.731420
 C     4.256302    -0.907992    -2.610065
 H     3.523335    -0.940245    -3.418132
 C     6.075218    -0.845021    -0.495657
 H     6.805311    -0.808988     0.314610
 C     5.571317    -0.516586    -2.843761
 H     5.913917    -0.235701    -3.841236
 C     6.462981    -0.478133    -1.778873
 F     7.719040    -0.087307    -1.994115
 C     2.845727     1.269299     0.183887
 C     3.575259     1.891242    -0.829011
 H     3.232222     1.803730    -1.860285
 C     3.254144     1.370575     1.512802
 H     2.662989     0.905946     2.301995
 C     4.742439     2.581205    -0.522425
 H     5.341470     3.059466    -1.299009
 C     4.423648     2.060352     1.823487
 H     4.771394     2.149037     2.854156
 C     5.158036     2.649719     0.802657
 F     6.281372     3.302113     1.099889
 C    -2.054128     2.269472    -2.069062
 C    -3.425530     2.505489    -2.105419
 H    -4.117194     1.665545    -2.036252
 C    -1.117971     3.310264    -2.148651
 C     0.345372     3.008025    -2.090038
 H     0.602762     2.507231    -1.145405
 H     0.636179     2.315058    -2.895083
 H     0.944092     3.924206    -2.178999
 C    -3.892281     3.814076    -2.210040
 H    -4.967436     4.004400    -2.231173
 C    -1.615550     4.612459    -2.260383
 H    -0.905366     5.441243    -2.324014
 C    -2.986313     4.869295    -2.285834
 H    -3.345731     5.897364    -2.369364
 C    -3.950581    -1.128427    -0.757628
 C    -4.636306    -1.897905     0.180525
 H    -4.567626    -1.630244     1.236295
 C    -4.024873    -1.435728    -2.116948
 H    -3.481028    -0.828443    -2.842709
 C    -5.398053    -2.985504    -0.237380
 H    -5.947651    -3.603916     0.474392
 C    -4.778230    -2.528064    -2.537271
 H    -4.842738    -2.797852    -3.592597
 C    -5.455290    -3.290156    -1.592795
 F    -6.177280    -4.334767    -1.993933
 C    -2.231074     1.871320     1.370791
 C    -2.828137     1.161326     2.411655
 H    -2.610593     0.098825     2.529904
 C    -2.490226     3.228124     1.196814
 H    -2.019973     3.763002     0.370437
 C    -3.694066     1.811157     3.286119
 H    -4.178029     1.280735     4.108091
 C    -3.353270     3.882085     2.072115
 H    -3.575635     4.944300     1.957891
 C    -3.946006     3.166346     3.104843
 F    -4.774781     3.790897     3.940813
