  98
scf done:    -4032.432187
 C    -2.572920    -2.413879    -1.337556
 H    -3.564778    -2.076373    -1.008516
 H    -2.647550    -2.870227    -2.331940
 C    -1.817093    -3.213176    -0.331166
 H    -2.385875    -3.428663     0.586132
 H    -1.345926    -4.127492    -0.715320
 H    -0.930854    -2.608715     0.121289
Co    -1.011867    -1.278135    -1.028529
 O     1.269448    -0.187360     0.972917
 C     1.692294    -2.673767    -0.074051
 C     2.286262    -0.227917    -1.587236
 O    -1.455379     1.238064     1.168805
 C    -3.406192     1.136364    -0.717494
 C    -3.211872    -0.715783     1.448536
 P    -2.174577     0.090192     0.165758
 P     1.045805    -1.001717    -0.482369
 C    -0.845410    -1.138464    -2.721381
 O    -0.833754    -1.028075    -3.875016
 C     2.364877     0.478654     1.446146
 C     2.957428     0.049512     2.634495
 H     2.555803    -0.823890     3.150002
 C     2.852349     1.619054     0.806600
 H     2.357038     1.988086    -0.090429
 C     4.047378     0.740680     3.158153
 H     4.498746     0.393835     4.091897
 C     3.948358     2.290386     1.336171
 H     4.317190     3.181966     0.821058
 C     4.574625     1.864611     2.513731
 C     5.776108     2.583718     3.055421
 H     5.691286     3.671909     2.916251
 H     6.697723     2.262444     2.541412
 H     5.914476     2.387712     4.128433
 C     1.719042    -3.051590     1.273507
 H     1.441630    -2.319750     2.032396
 C     1.998912    -3.625459    -1.072599
 C     1.954091    -3.310288    -2.538223
 H     2.729728    -2.584146    -2.826783
 H     0.989047    -2.863804    -2.818423
 H     2.100587    -4.219928    -3.136145
 C     2.078462    -4.340094     1.656723
 H     2.095830    -4.609664     2.715266
 C     2.360996    -4.914121    -0.662150
 H     2.606669    -5.654412    -1.428544
 C     2.409293    -5.276148     0.681580
 H     2.694825    -6.292530     0.962850
 C     1.751918     0.654098    -2.535391
 H     0.670791     0.776981    -2.586084
 C     3.690603    -0.389269    -1.497873
 C     4.385037    -1.296587    -0.524587
 H     4.313962    -2.351119    -0.832676
 H     3.964006    -1.231890     0.485851
 H     5.449865    -1.033983    -0.462126
 C     2.563732     1.377109    -3.401629
 H     2.116809     2.056188    -4.130793
 C     4.486276     0.347211    -2.384617
 H     5.571833     0.234422    -2.322618
 C     3.943471     1.218984    -3.323955
 H     4.603491     1.776248    -3.993329
 C    -0.667433     2.248565     0.737467
 C    -0.073414     3.046556     1.722714
 H    -0.244702     2.793956     2.770609
 C    -0.449181     2.549653    -0.607845
 H    -0.915573     1.944339    -1.385215
 C     0.723880     4.122716     1.361500
 H     1.188373     4.725621     2.146788
 C     0.362801     3.631458    -0.951625
 H     0.530506     3.846994    -2.010481
 C     0.964472     4.437946     0.016088
 C     1.846006     5.594159    -0.358026
 H     2.845914     5.498485     0.095458
 H     1.425995     6.552116    -0.010771
 H     1.977290     5.662542    -1.447194
 C    -3.600641     0.855388    -2.074713
 H    -3.017645     0.052137    -2.527607
 C    -4.141325     2.178074    -0.103174
 C    -3.993691     2.572089     1.338069
 H    -3.100550     3.200478     1.481454
 H    -3.880330     1.703433     1.999110
 H    -4.868850     3.151211     1.664302
 C    -4.510846     1.575713    -2.842308
 H    -4.646062     1.334586    -3.898974
 C    -5.048055     2.890478    -0.897954
 H    -5.623752     3.696994    -0.435410
 C    -5.237100     2.602172    -2.246992
 H    -5.955819     3.182623    -2.830918
 C    -4.563007    -0.957025     1.161342
 H    -5.001249    -0.538020     0.252655
 C    -2.646321    -1.247640     2.629111
 C    -1.212257    -1.030174     3.006771
 H    -1.070807    -0.033270     3.451175
 H    -0.546929    -1.057328     2.134656
 H    -0.882770    -1.784876     3.734993
 C    -5.362315    -1.706486     2.019774
 H    -6.412302    -1.879969     1.773570
 C    -3.471948    -1.990693     3.481097
 H    -3.040852    -2.399917     4.399111
 C    -4.812772    -2.224990     3.188415
 H    -5.426060    -2.814628     3.874143
