  98
scf done:    -4032.434210
 C     1.837448     2.713819    -0.342643
 H     2.000902     3.598945     0.282125
 H     2.801947     2.214556    -0.511292
 C     0.994846     2.931819    -1.557630
 H     0.610613     3.953265    -1.674618
 H     1.453707     2.604679    -2.503570
 H     0.009407     2.295936    -1.545267
Co     0.247873     1.659653     0.074983
 O     0.495786    -1.573589    -0.313951
 C     2.529068    -0.252581    -1.619433
 C     2.436976    -0.622590     1.327178
 O    -2.008836     0.044748     1.506326
 C    -3.069623     2.179642     0.100444
 C    -2.198267    -0.231034    -1.286774
 P    -1.730350     0.890941     0.103763
 P     1.393195    -0.116796    -0.126478
 C    -0.009672     2.547363     1.517643
 O    -0.155373     3.125765     2.510549
 C     0.987909    -2.809840    -0.613663
 C     1.584916    -3.595752     0.378306
 H     1.645671    -3.209081     1.394815
 C     0.820366    -3.317209    -1.917459
 C     0.046584    -2.569196    -2.963008
 H    -1.036351    -2.729647    -2.829648
 H     0.210016    -1.484245    -2.918031
 H     0.310410    -2.918130    -3.970837
 C     2.088041    -4.856924     0.073733
 H     2.558595    -5.454867     0.857514
 C     1.346251    -4.583725    -2.197967
 H     1.238392    -4.979629    -3.211523
 C     1.985776    -5.348134    -1.225821
 H     2.387118    -6.331558    -1.479558
 H     2.405157     0.698941    -2.154153
 H     2.056793    -1.024098    -2.242829
 C     3.985831    -0.563334    -1.469519
 C     4.426687    -1.868771    -1.211637
 H     3.697687    -2.678624    -1.125421
 C     4.944116     0.447884    -1.606476
 H     4.616838     1.471121    -1.809321
 C     5.784806    -2.145840    -1.069674
 H     6.107089    -3.169535    -0.864205
 C     6.302560     0.171437    -1.474768
 H     7.031971     0.977755    -1.582322
 C     6.728840    -1.126575    -1.196873
 H     7.793472    -1.345319    -1.086237
 H     3.033666    -1.500734     1.044474
 H     1.683174    -0.938120     2.066298
 C     3.322135     0.439731     1.907886
 C     2.789237     1.442578     2.726071
 H     1.725748     1.435238     2.963598
 C     4.698637     0.444723     1.656544
 H     5.139205    -0.347640     1.048930
 C     3.601558     2.446054     3.246376
 H     3.159036     3.222203     3.875391
 C     5.514295     1.446756     2.178197
 H     6.586089     1.432350     1.965117
 C     4.967568     2.458226     2.965867
 H     5.606179     3.246826     3.371487
 C    -3.031341    -0.748400     1.947654
 C    -4.371226    -0.368760     1.892239
 H    -4.651124     0.589130     1.457526
 C    -2.647990    -1.967396     2.532448
 C    -1.197334    -2.327293     2.604595
 H    -0.715929    -2.208594     1.623414
 H    -0.661994    -1.653763     3.294269
 H    -1.060630    -3.360093     2.953033
 C    -5.354505    -1.226447     2.378926
 H    -6.403812    -0.930497     2.313902
 C    -3.653714    -2.803599     3.020750
 H    -3.367942    -3.758860     3.469972
 C    -4.999604    -2.449264     2.941343
 H    -5.767827    -3.125257     3.323017
 H    -3.138118     2.521750     1.144201
 H    -4.031045     1.724534    -0.178691
 C    -2.713145     3.316980    -0.809054
 C    -2.981346     3.258882    -2.182038
 H    -3.509851     2.395437    -2.594506
 C    -2.046969     4.443704    -0.308754
 H    -1.825525     4.505259     0.758915
 C    -2.592708     4.292048    -3.033724
 H    -2.814218     4.226366    -4.101662
 C    -1.666819     5.481714    -1.155546
 H    -1.154831     6.354333    -0.742823
 C    -1.933315     5.408143    -2.522775
 H    -1.631935     6.221212    -3.187320
 H    -1.343747    -0.915998    -1.340134
 H    -2.141298     0.429653    -2.168338
 C    -3.485709    -0.991245    -1.234338
 C    -4.694196    -0.438350    -1.673800
 H    -4.705566     0.562144    -2.114016
 C    -3.498661    -2.293890    -0.717073
 H    -2.561194    -2.742514    -0.378710
 C    -5.887198    -1.151382    -1.567039
 H    -6.820453    -0.700924    -1.913764
 C    -4.687643    -3.006876    -0.607493
 H    -4.676690    -4.013292    -0.183612
 C    -5.888902    -2.434866    -1.025820
 H    -6.824066    -2.992179    -0.935194
