 100
scf done:    -3857.251617
 C     1.398466     1.682044    -2.943326
 H     1.279656     2.690041    -3.357494
 H     2.462843     1.412653    -2.903203
 C     0.525212     0.638487    -3.552180
 H    -0.190235     1.002634    -4.301279
 H     1.074835    -0.230972    -3.941268
 H    -0.131721     0.099734    -2.745287
Co     0.238456     1.214458    -1.448276
 O     2.560909    -0.956865    -1.440613
 C     3.244744     1.366446    -0.064076
 C     1.640221    -0.686084     1.129552
 O    -1.307407    -0.921082     0.408139
 C    -2.579518     1.477552     0.562720
 C    -2.762987    -0.151110    -1.810642
 P    -1.544443     0.457893    -0.562055
 P     1.844712     0.226477    -0.449628
 C     0.017148     2.862236    -1.055880
 O     0.011177     3.972464    -0.722338
 C     3.821987    -1.443854    -1.304913
 C     4.074640    -2.550573    -0.488298
 H     3.242112    -3.024517     0.034105
 C     4.873786    -0.853693    -2.012431
 H     4.659326    -0.008918    -2.669812
 C     5.372183    -3.034963    -0.343561
 H     5.592147    -3.893505     0.293634
 C     6.173155    -1.331942    -1.871147
 H     7.008936    -0.879431    -2.407953
 C     6.408902    -2.412228    -1.028499
 F     7.653563    -2.869484    -0.885600
 H     3.667282     1.650826    -1.042061
 H     2.749870     2.282676     0.301062
 C     4.345112     0.932618     0.896984
 H     3.937457     0.855608     1.919357
 H     4.712008    -0.073716     0.642917
 C     5.527624     1.891204     0.900123
 H     5.182275     2.907879     1.162773
 H     5.929534     1.967248    -0.126891
 C     6.644114     1.468340     1.844152
 H     6.240874     1.387369     2.869350
 H     6.974813     0.450133     1.572245
 C     7.834542     2.413386     1.835140
 H     8.624805     2.079678     2.524626
 H     7.539256     3.431861     2.135021
 H     8.279442     2.484285     0.829438
 H     0.965248    -1.522624     0.894597
 H     2.604123    -1.101625     1.463404
 C     1.010880     0.194698     2.201921
 H     1.746112     0.931137     2.571170
 H     0.201508     0.787164     1.743301
 C     0.444340    -0.598446     3.369561
 H     1.259900    -1.135301     3.887185
 H    -0.226036    -1.380380     2.972489
 C    -0.320754     0.255693     4.369801
 H     0.348805     1.032391     4.779605
 H    -1.114882     0.807637     3.833768
 C    -0.933814    -0.548975     5.504385
 H    -1.487976     0.091100     6.207611
 H    -0.159337    -1.081713     6.079083
 H    -1.633219    -1.309235     5.119628
 C    -2.246898    -1.813973     0.815587
 C    -2.458364    -2.978134     0.069978
 H    -1.867471    -3.139937    -0.833362
 C    -2.963787    -1.612514     1.999668
 H    -2.766527    -0.722545     2.598940
 C    -3.410155    -3.909457     0.473779
 H    -3.594930    -4.820484    -0.098318
 C    -3.916267    -2.542101     2.410063
 H    -4.488761    -2.401390     3.328679
 C    -4.136600    -3.675110     1.636022
 F    -5.051626    -4.562871     2.023612
 H    -3.380504     0.833728     0.960877
 H    -1.936327     1.753647     1.415286
 C    -3.180485     2.726483    -0.071693
 H    -2.379938     3.408281    -0.392291
 H    -3.733528     2.458421    -0.988460
 C    -4.118195     3.462359     0.876172
 H    -3.570059     3.720751     1.800470
 H    -4.933042     2.784092     1.190380
 C    -4.714571     4.726244     0.273115
 H    -3.894763     5.396396    -0.039315
 H    -5.254590     4.463744    -0.654074
 C    -5.649127     5.463164     1.218581
 H    -6.063639     6.370967     0.754765
 H    -5.125635     5.769733     2.138483
 H    -6.497005     4.826987     1.520238
 H    -2.721601     0.586809    -2.629187
 H    -2.304862    -1.066893    -2.224033
 C    -4.207759    -0.412699    -1.397989
 H    -4.247669    -0.990575    -0.462469
 H    -4.712137     0.543960    -1.183277
 C    -4.990570    -1.165704    -2.464417
 H    -4.478983    -2.122409    -2.676942
 H    -4.970956    -0.597363    -3.412277
 C    -6.431945    -1.446845    -2.064310
 H    -6.434928    -2.010050    -1.114185
 H    -6.940408    -0.490869    -1.846362
 C    -7.213246    -2.214538    -3.117992
 H    -8.248985    -2.404030    -2.798154
 H    -6.746813    -3.190548    -3.328159
 H    -7.254982    -1.659468    -4.069011
