  52
scf done:    -3228.750219
 C    -4.248881     1.197587    -0.166718
 H    -5.194921     0.830297     0.248212
 H    -4.118743     2.255622     0.091057
 C    -4.030581     0.871556    -1.609527
 H    -4.843267     0.301657    -2.080758
 H    -3.778515     1.737399    -2.239712
 H    -3.097886     0.181707    -1.774830
Co    -2.725622    -0.013740    -0.077720
 O     0.089905     1.500847    -0.556843
 C    -1.707175     3.276965     0.432547
 C    -0.626186     1.291675     2.106243
 O     0.078577    -1.424777     0.421096
 C    -1.712034    -3.223164    -0.561125
 C    -0.524965    -1.287155    -2.264640
 P    -1.264411    -1.454964    -0.603984
 P    -1.309557     1.488404     0.423565
 C    -3.504093    -0.990533     1.093730
 O    -3.985534    -1.598272     1.952641
 C     1.220415     2.213654    -0.302640
 C     2.205957     1.703956     0.549927
 H     2.040640     0.741476     1.035435
 C     1.431309     3.436409    -0.947272
 H     0.662937     3.814835    -1.623953
 C     3.385780     2.412056     0.761793
 H     4.167412     2.029069     1.420461
 C     2.609672     4.148776    -0.739678
 H     2.794103     5.103143    -1.236308
 C     3.572967     3.628529     0.116279
 F     4.702372     4.307805     0.317529
 H    -2.489070     3.461202     1.183325
 H    -0.823760     3.883211     0.682240
 H    -2.092389     3.582252    -0.551435
 H     0.138709     2.039968     2.361952
 H    -1.475955     1.383621     2.798889
 H    -0.218037     0.276119     2.194579
 C     1.203729    -2.175786     0.246524
 C     2.246698    -1.704962    -0.557056
 H     2.134685    -0.745910    -1.064613
 C     1.343030    -3.388482     0.926556
 H     0.529295    -3.732385     1.567490
 C     3.417583    -2.446601    -0.688783
 H     4.245783    -2.095758    -1.307106
 C     2.511977    -4.133974     0.797906
 H     2.643782    -5.081950     1.322597
 C     3.534887    -3.654926    -0.012059
 F     4.654593    -4.366317    -0.137045
 H    -0.869647    -3.879806    -0.825039
 H    -2.084423    -3.473601     0.442579
 H    -2.534037    -3.379227    -1.275547
 H    -0.122299    -0.268614    -2.353087
 H     0.262614    -2.029045    -2.461785
 H    -1.332507    -1.415156    -3.001478
