  98
scf done:    -4032.433162
 C    -0.891562    -3.736499    -0.211664
 H    -0.501544    -4.585402     0.361793
 H    -1.987566    -3.752234    -0.233630
 C    -0.222937    -3.506017    -1.520223
 H     0.610894    -4.185222    -1.744747
 H    -0.912232    -3.454459    -2.376004
 H     0.275665    -2.439361    -1.596297
Co    -0.014498    -2.016696     0.076723
 O    -1.946153     0.259310    -1.388629
 C    -3.378411    -1.659833    -0.181847
 C    -2.107187     0.353809     1.355849
 O     1.966783     0.139655     1.327310
 C     3.252040    -1.794539    -0.067634
 C     2.054267     0.391151    -1.425674
 P     1.727807    -0.781738    -0.065978
 P    -1.773851    -0.786346    -0.037570
 C     0.407194    -2.561196     1.641218
 O     0.609954    -2.918892     2.721654
 C    -2.557214     1.476192    -1.388047
 C    -3.854911     1.622227    -1.876259
 H    -4.395356     0.741709    -2.226751
 C    -1.861778     2.601296    -0.934952
 H    -0.845486     2.474687    -0.558561
 C    -4.449008     2.883277    -1.897686
 H    -5.467965     2.984967    -2.281811
 C    -2.467057     3.851353    -0.960646
 H    -1.911452     4.720371    -0.596763
 C    -3.774513     4.018225    -1.437385
 C    -4.425820     5.371133    -1.436561
 H    -4.635580     5.711489    -0.409120
 H    -5.379231     5.359515    -1.983354
 H    -3.778355     6.130730    -1.901679
 C    -3.908808    -1.943598    -1.445627
 H    -3.422479    -1.539229    -2.336358
 C    -3.987472    -2.202726     0.952843
 H    -3.559473    -2.001378     1.939732
 C    -5.047357    -2.737610    -1.556787
 H    -5.464023    -2.956834    -2.543209
 C    -5.132829    -3.000645     0.855960
 C    -5.785152    -3.544821     2.093711
 H    -5.040501    -3.970222     2.783242
 H    -6.315502    -2.748963     2.642090
 H    -6.517306    -4.328610     1.853727
 C    -5.655529    -3.259046    -0.416281
 H    -6.547717    -3.883774    -0.513349
 C    -3.358592     0.958400     1.551084
 H    -4.196986     0.713600     0.896519
 C    -1.050805     0.672714     2.210140
 H    -0.081395     0.194405     2.058870
 C    -3.523886     1.878308     2.579083
 H    -4.495510     2.355168     2.729482
 C    -1.204605     1.597182     3.251986
 C    -0.042951     1.924741     4.144271
 H     0.420302     1.008764     4.541371
 H     0.743296     2.460567     3.587907
 H    -0.348199     2.552991     4.992948
 C    -2.455297     2.196798     3.419418
 H    -2.599268     2.920890     4.226619
 C     2.696448     1.292182     1.399718
 C     2.094462     2.508621     1.072640
 H     1.055606     2.510402     0.738081
 C     4.022186     1.267047     1.828360
 H     4.485531     0.311307     2.077557
 C     2.823050     3.688627     1.165228
 H     2.342832     4.633984     0.897737
 C     4.739442     2.458704     1.916195
 H     5.780844     2.429280     2.248760
 C     4.159421     3.688194     1.586209
 C     4.930387     4.971156     1.703687
 H     4.716904     5.647602     0.862423
 H     6.014282     4.789290     1.727683
 H     4.666340     5.510669     2.628649
 C     3.774048    -2.261028     1.145301
 H     3.317226    -1.951944     2.087946
 C     3.821149    -2.222792    -1.270338
 H     3.415081    -1.859631    -2.219340
 C     4.867291    -3.120814     1.138959
 H     5.282715    -3.476571     2.085031
 C     4.913362    -3.098261    -1.289505
 C     5.492672    -3.565121    -2.593562
 H     4.910350    -4.407337    -3.003230
 H     5.480668    -2.764871    -3.348222
 H     6.529720    -3.909946    -2.474725
 C     5.432930    -3.534966    -0.066685
 H     6.292549    -4.210818    -0.059000
 C     3.315998     0.974173    -1.626651
 H     4.160132     0.698388    -0.992158
 C     0.990330     0.746097    -2.256230
 H     0.010156     0.291643    -2.093573
 C     3.483125     1.909778    -2.639333
 H     4.461463     2.370339    -2.796144
 C     1.147273     1.689063    -3.281975
 C    -0.024344     2.076771    -4.135751
 H    -0.592640     1.192041    -4.458741
 H    -0.726002     2.710622    -3.568777
 H     0.291251     2.633006    -5.029720
 C     2.407800     2.265052    -3.456781
 H     2.554309     3.003324    -4.250555
