 110
scf done:    -4189.571906
 C    -1.305616    -1.832849     2.625143
 H    -1.612576    -1.600717     3.651108
 H    -2.170587    -2.217358     2.069895
 C    -0.067006    -2.656811     2.498198
 H     0.419015    -2.910736     3.450447
 H    -0.174201    -3.566482     1.887927
 H     0.775617    -2.083247     1.928902
Co    -0.101965    -0.584587     1.723876
 O    -1.226841     1.279238    -0.531423
 C    -1.311570    -1.210960    -1.615827
 C    -3.202519    -0.494560     0.372363
 O     2.024138     1.853508     1.074312
 C     3.174307    -0.353408     1.936266
 C     2.235653    -0.107146    -0.817040
 P     1.726237     0.201046     0.928064
 P    -1.398261    -0.310850     0.052145
 C    -0.157463     0.465694     3.100207
 O    -0.266758     1.168226     4.008511
 C    -2.005721     1.885783    -1.476168
 C    -3.312936     2.276085    -1.167461
 H    -3.697005     2.103972    -0.161684
 C    -1.451530     2.186130    -2.735608
 C    -0.014592     1.901454    -3.048476
 H     0.310900     2.477567    -3.924642
 H     0.628466     2.176021    -2.202427
 H     0.167703     0.837471    -3.274043
 C    -4.109892     2.894456    -2.126185
 H    -5.131866     3.184347    -1.871547
 C    -2.275490     2.811500    -3.678466
 H    -1.854645     3.048419    -4.659570
 C    -3.596501     3.149147    -3.395523
 H    -4.213056     3.633186    -4.156106
 H    -1.015395    -0.436298    -2.333138
 H    -0.472275    -1.914859    -1.548407
 C    -2.553671    -1.887221    -2.100975
 C    -3.445637    -1.195170    -2.928955
 H    -3.196645    -0.176930    -3.242757
 C    -2.872889    -3.195888    -1.683437
 C    -1.939350    -3.963765    -0.792718
 H    -1.725870    -3.419282     0.142120
 H    -0.967886    -4.139534    -1.283211
 H    -2.361712    -4.940553    -0.520254
 C    -4.644320    -1.772806    -3.338298
 H    -5.326862    -1.212064    -3.981088
 C    -4.080574    -3.761847    -2.103155
 H    -4.330803    -4.775666    -1.778102
 C    -4.966222    -3.062001    -2.920418
 H    -5.904890    -3.526343    -3.231752
 H    -3.757587    -0.105318    -0.497266
 H    -3.354742    -1.581864     0.312415
 C    -3.757618     0.032819     1.662005
 C    -3.259192     1.201047     2.245228
 H    -2.431432     1.723404     1.766237
 C    -4.816983    -0.651856     2.294039
 C    -5.388511    -1.911306     1.707756
 H    -4.641243    -2.723089     1.685367
 H    -5.728872    -1.768745     0.669889
 H    -6.242996    -2.267908     2.299122
 C    -3.774063     1.693936     3.440859
 H    -3.348366     2.597420     3.882635
 C    -5.327416    -0.142428     3.492147
 H    -6.146491    -0.674274     3.984467
 C    -4.814302     1.017122     4.069497
 H    -5.227245     1.387501     5.010848
 C     1.813072     2.852043     0.161559
 C     2.770831     3.115960    -0.821010
 H     3.677906     2.510918    -0.860357
 C     0.678652     3.670432     0.299896
 C    -0.270806     3.445877     1.429772
 H    -0.566715     2.391611     1.461422
 H     0.203140     3.677038     2.396623
 H    -1.170859     4.065768     1.320908
 C     2.577737     4.158888    -1.725304
 H     3.328696     4.353671    -2.494423
 C     0.503327     4.700553    -0.628065
 H    -0.387477     5.328764    -0.545991
 C     1.431289     4.943841    -1.639857
 H     1.263005     5.755673    -2.350887
 H     3.038073     0.205192     2.877318
 H     2.979733    -1.407001     2.175671
 C     4.550924    -0.153099     1.374162
 C     5.035065     1.147488     1.176564
 H     4.401456     1.989352     1.460761
 C     5.378352    -1.251518     1.054766
 C     4.948696    -2.667911     1.306049
 H     4.026518    -2.922481     0.763376
 H     4.761706    -2.845967     2.377749
 H     5.726229    -3.373186     0.983718
 C     6.298244     1.377589     0.637545
 H     6.650216     2.401846     0.493004
 C     6.646772    -0.999587     0.518415
 H     7.288011    -1.849520     0.269509
 C     7.107846     0.295891     0.299355
 H     8.102357     0.458299    -0.122936
 H     1.390765     0.237547    -1.433991
 H     3.072942     0.563969    -1.031245
 C     2.614054    -1.523875    -1.152050
 C     1.835417    -2.601759    -0.715077
 H     0.954615    -2.391862    -0.105453
 C     3.759959    -1.779483    -1.936014
 C     4.622633    -0.664732    -2.451644
 H     5.061015    -0.079059    -1.628121
 H     4.049563     0.031268    -3.085003
 H     5.453020    -1.059430    -3.052395
 C     2.170274    -3.918267    -1.024326
 H     1.546422    -4.739240    -0.662523
 C     4.083231    -3.107438    -2.235202
 H     4.972398    -3.306706    -2.839429
 C     3.304993    -4.173172    -1.788326
 H     3.586287    -5.198616    -2.038899
