 104
scf done:    -4309.389841
 C    -1.304025     0.051520     4.164030
 H    -0.953986     0.566402     5.066584
 H    -2.361387     0.285178     3.996335
 C    -0.956920    -1.400843     4.101213
 H    -0.428825    -1.787368     4.984262
 H    -1.800781    -2.061982     3.855628
 H    -0.201208    -1.641695     3.239600
Co    -0.076339     0.000767     2.648058
 O    -1.945220    -1.471828     0.544841
 C    -3.283659     0.734068     1.595496
 C    -1.215329     0.953631    -0.440526
 O     1.804651    -0.102360    -0.108703
 C     3.163922    -0.681403     2.215552
 C     1.320198    -2.506656     0.825597
 P     1.496508    -0.738457     1.402660
 P    -1.599508     0.084661     1.134634
 C     0.810424     1.296732     3.317299
 O     1.355984     2.233832     3.727103
 C    -3.027967    -1.912362    -0.155253
 C    -3.908322    -2.790367     0.481269
 H    -3.715271    -3.061419     1.521035
 C    -3.231452    -1.580462    -1.498138
 H    -2.522411    -0.932159    -2.012040
 C    -5.012999    -3.296051    -0.196939
 H    -5.718689    -3.974844     0.285209
 C    -4.341582    -2.071642    -2.177587
 H    -4.532498    -1.805526    -3.218419
 C    -5.221772    -2.917376    -1.516541
 F    -6.298888    -3.372376    -2.164189
 H    -3.655804     0.037808     2.363182
 H    -3.050787     1.671363     2.126831
 C    -4.333847     0.965978     0.547791
 C    -4.227498     2.018174    -0.370708
 H    -3.381757     2.707807    -0.317846
 C    -5.469598     0.149779     0.493556
 H    -5.579576    -0.652499     1.227564
 C    -5.208663     2.200724    -1.342658
 H    -5.113649     3.023697    -2.055473
 C    -6.465624     0.320812    -0.470599
 C    -7.658759    -0.589479    -0.517446
 H    -7.821285    -1.087167     0.449330
 H    -8.574620    -0.037888    -0.776829
 H    -7.526573    -1.380178    -1.273285
 C    -6.312730     1.354931    -1.401919
 H    -7.078202     1.509454    -2.167519
 H    -0.407416     0.358299    -0.896675
 H    -2.093095     0.872596    -1.100612
 C    -0.802813     2.400974    -0.353480
 C    -0.790704     3.131259     0.836626
 H    -1.043158     2.646163     1.781236
 C    -0.427239     3.050282    -1.537472
 H    -0.424500     2.482657    -2.472871
 C    -0.414809     4.474917     0.834357
 H    -0.405386     5.030704     1.774996
 C    -0.040699     4.390080    -1.558514
 C     0.399549     5.051659    -2.831549
 H     0.186554     4.422691    -3.707259
 H    -0.102832     6.020674    -2.974928
 H     1.483804     5.245184    -2.813585
 C    -0.044092     5.100432    -0.349054
 H     0.254403     6.152532    -0.341502
 C     2.287421     1.095019    -0.516433
 C     2.641790     1.167097    -1.868218
 H     2.516235     0.273093    -2.482909
 C     2.436902     2.209518     0.309838
 H     2.136904     2.177419     1.356082
 C     3.144021     2.351817    -2.394981
 H     3.423147     2.433818    -3.447071
 C     2.942830     3.395591    -0.218832
 H     3.050184     4.283602     0.405227
 C     3.290426     3.452965    -1.559582
 F     3.756461     4.600938    -2.068122
 H     3.346492     0.383137     2.431658
 H     2.986910    -1.159877     3.192314
 C     4.314410    -1.306756     1.493777
 C     4.752813    -2.595641     1.822194
 H     4.281249    -3.135624     2.648053
 C     4.952730    -0.628441     0.450178
 H     4.629527     0.383250     0.194735
 C     5.787630    -3.190525     1.103859
 H     6.121126    -4.197832     1.364466
 C     5.986616    -1.212450    -0.286241
 C     6.647018    -0.449306    -1.397275
 H     7.433568     0.216002    -1.003985
 H     7.120418    -1.123657    -2.125177
 H     5.922157     0.184904    -1.929026
 C     6.394313    -2.508780     0.051115
 H     7.198452    -2.986209    -0.515451
 H     2.041914    -3.104417     1.403711
 H     0.305157    -2.803582     1.123603
 C     1.506833    -2.707821    -0.651633
 C     0.400857    -2.648775    -1.506045
 H    -0.593618    -2.512580    -1.080905
 C     2.775784    -2.893870    -1.205288
 H     3.645079    -2.949232    -0.547801
 C     0.572069    -2.755580    -2.883194
 H    -0.300004    -2.716892    -3.541284
 C     2.966228    -2.993661    -2.587153
 C     4.349319    -3.142406    -3.153063
 H     4.333460    -3.619462    -4.143694
 H     4.833022    -2.157754    -3.267090
 H     4.992053    -3.737860    -2.488787
 C     1.846305    -2.918558    -3.423316
 H     1.974340    -3.001185    -4.506386
