  76
scf done:    -3542.984952
 C    -0.225849    -1.806090    -3.057701
 H    -0.703802    -1.397391    -3.955347
 H     0.631042    -2.441808    -3.307943
 C    -1.131029    -2.316538    -2.019358
 H    -2.201524    -2.308947    -2.263271
 H    -0.853033    -3.290656    -1.591002
 H    -1.127621    -1.648437    -1.007021
Co    -0.024908    -0.564082    -1.559690
 O     0.688751    -2.431616     1.027507
 C     2.370630    -2.873251    -0.915003
 C     2.578586    -0.421409     0.832053
 O    -1.015548     1.915650     0.510037
 C    -1.719690     2.346706    -2.060033
 C    -3.011660     0.328941    -0.218636
 P    -1.374171     0.956396    -0.859861
 P     1.408431    -1.460469    -0.177124
 C     0.920153     0.447257    -2.541627
 O     1.578229     1.132179    -3.205584
 C    -0.479183    -2.105922     1.632382
 C    -1.540632    -3.013486     1.565575
 H    -1.400990    -3.942539     1.009843
 C    -0.637734    -0.912163     2.343172
 H     0.182649    -0.195598     2.388100
 C    -2.748171    -2.736549     2.202423
 H    -3.588414    -3.431819     2.158274
 C    -1.838575    -0.634819     2.988885
 H    -1.981632     0.291490     3.547473
 C    -2.882896    -1.546280     2.906732
 F    -4.045008    -1.264383     3.500547
 H     1.524888    -3.485103    -1.281630
 C     3.191403    -2.455393    -2.132075
 H     3.437709    -3.340454    -2.739668
 H     2.648334    -1.745499    -2.771331
 H     4.141514    -1.987244    -1.840242
 C     3.173625    -3.731534     0.053206
 H     2.589587    -3.989716     0.946955
 H     3.479019    -4.668692    -0.440374
 H     4.094067    -3.220505     0.372724
 H     1.935075     0.437501     1.083177
 C     3.075294    -1.032710     2.135626
 H     3.551265    -0.248189     2.745850
 H     2.259222    -1.473638     2.724664
 H     3.822722    -1.819680     1.965602
 C     3.720627     0.115352    -0.025013
 H     3.370267     0.518513    -0.987008
 H     4.230230     0.931732     0.509031
 H     4.469813    -0.663802    -0.228830
 C     0.204790     2.362134     0.871462
 C     0.463443     2.476137     2.244119
 H    -0.326902     2.207799     2.947177
 C     1.200243     2.731278    -0.041068
 H     1.025491     2.665022    -1.113652
 C     1.699944     2.920206     2.701382
 H     1.915254     3.003295     3.768209
 C     2.437095     3.183323     0.412927
 H     3.221836     3.466592    -0.290490
 C     2.680912     3.259256     1.776472
 F     3.879108     3.661111     2.207437
 H    -0.707378     2.775720    -2.168252
 C    -2.120122     1.834595    -3.440255
 H    -1.990373     2.629903    -4.190841
 H    -1.502409     0.975946    -3.740801
 H    -3.173626     1.522795    -3.470968
 C    -2.637407     3.449655    -1.552484
 H    -2.360745     3.775667    -0.540134
 H    -2.583628     4.324523    -2.220430
 H    -3.687773     3.121857    -1.532909
 H    -2.688296    -0.584503     0.308443
 C    -3.742740     1.200768     0.795250
 H    -4.532083     0.606284     1.282797
 H    -3.065522     1.569815     1.573890
 H    -4.220110     2.069935     0.321509
 C    -3.937627    -0.090039    -1.357336
 H    -3.413943    -0.634520    -2.155369
 H    -4.734186    -0.743882    -0.968607
 H    -4.426317     0.782735    -1.815184
