  96
scf done:    -4452.906467
 C    -1.739717    -2.019358    -2.754045
 H    -1.716586    -3.098179    -2.946991
 H    -2.774364    -1.655253    -2.754190
 C    -0.778119    -1.212674    -3.555112
 H    -0.139168    -1.788491    -4.239354
 H    -1.227194    -0.364491    -4.092588
 H     0.017503    -0.667951    -2.882395
Co    -0.551692    -1.332707    -1.366020
 O    -2.862713     1.184560    -0.805244
 C    -3.725626    -1.210490    -0.313325
 C    -1.904565     0.042954     1.421568
 O     1.360928    -0.967181     1.117022
 C     2.799189    -1.083052    -1.218768
 C     1.496007     1.303225    -0.397566
 P     1.236621    -0.496383    -0.489573
 P    -2.138784    -0.294405    -0.365990
 C    -0.251750    -2.908274    -0.756653
 O    -0.151774    -3.950786    -0.263572
 C    -2.257736     2.298840    -1.284182
 C    -1.207011     2.271084    -2.205527
 H    -0.805438     1.309457    -2.518687
 C    -2.772118     3.531283    -0.867399
 H    -3.608167     3.542819    -0.165464
 C    -0.672731     3.458894    -2.694925
 H     0.153406     3.452927    -3.406827
 C    -2.240078     4.721739    -1.354937
 H    -2.637918     5.690123    -1.044877
 C    -1.188165     4.672268    -2.259977
 F    -0.658553     5.813718    -2.710022
 C    -3.693470    -2.591653    -0.065244
 H    -2.735942    -3.103998     0.047834
 C    -4.965724    -0.593691    -0.474807
 H    -5.007718     0.477835    -0.673285
 C    -4.864307    -3.324575     0.031744
 H    -4.846587    -4.398387     0.226800
 C    -6.152255    -1.324388    -0.392961
 H    -7.102991    -0.809185    -0.533064
 C    -6.107788    -2.697459    -0.133828
 O    -7.193602    -3.490264    -0.032401
 C    -8.461073    -2.919572    -0.189652
 H    -8.590134    -2.472354    -1.191424
 H    -9.189990    -3.730995    -0.067877
 H    -8.660829    -2.144153     0.571244
 C    -2.334264     1.230608     2.031775
 H    -2.874991     1.972392     1.443805
 C    -1.238057    -0.901602     2.203668
 H    -0.892714    -1.833700     1.755221
 C    -2.055735     1.485481     3.366209
 H    -2.369259     2.414889     3.845751
 C    -0.963364    -0.664426     3.548650
 H    -0.423937    -1.420183     4.119290
 C    -1.352782     0.545028     4.134195
 O    -1.097608     0.886833     5.412061
 C    -0.345209     0.009630     6.203988
 H     0.654825    -0.174616     5.772686
 H    -0.228757     0.490982     7.183284
 H    -0.854954    -0.959974     6.342679
 C     2.485169    -0.939601     1.885269
 C     2.789148     0.178848     2.664634
 H     2.134027     1.049212     2.630558
 C     3.306320    -2.069223     1.928653
 H     3.042690    -2.933165     1.316086
 C     3.922570     0.172574     3.475198
 H     4.183824     1.033806     4.092850
 C     4.438300    -2.079531     2.737191
 H     5.096651    -2.948658     2.784885
 C     4.735215    -0.954524     3.498109
 F     5.821235    -0.959324     4.272647
 C     4.055594    -0.585107    -0.821988
 H     4.118223     0.220561    -0.087225
 C     2.764373    -2.112605    -2.161661
 H     1.793217    -2.510857    -2.466369
 C     5.223351    -1.104123    -1.351170
 H     6.201639    -0.729513    -1.044979
 C     3.932220    -2.640838    -2.708396
 H     3.862216    -3.442351    -3.443745
 C     5.173366    -2.138566    -2.300358
 O     6.356773    -2.578663    -2.757419
 C     6.378675    -3.612047    -3.704452
 H     5.862457    -3.323692    -4.636681
 H     7.434261    -3.809034    -3.929138
 H     5.917837    -4.535524    -3.312812
 C     2.276614     1.997223    -1.335055
 H     2.846949     1.447457    -2.087147
 C     0.769238     2.046377     0.538437
 H     0.141097     1.532303     1.268731
 C     2.331451     3.381978    -1.327942
 H     2.930430     3.931627    -2.056365
 C     0.811269     3.436607     0.553166
 H     0.217078     3.976204     1.290450
 C     1.587530     4.116279    -0.393752
 O     1.668902     5.452915    -0.490627
 C     0.886806     6.244607     0.361651
 H     1.175017     6.113852     1.419524
 H     1.063535     7.286986     0.069490
 H    -0.187064     6.018447     0.251577
