  86
scf done:    -3875.293640
 C    -2.075377    -1.269693    -2.496476
 H    -2.181614    -2.272004    -2.926800
 H    -3.066705    -0.859157    -2.263930
 C    -1.148392    -0.361855    -3.224813
 H    -0.649436    -0.812031    -4.093499
 H    -1.572502     0.614410    -3.499268
 H    -0.238683    -0.031871    -2.563365
Co    -0.663059    -1.003663    -1.174887
 O    -2.825125     1.326546     0.065130
 C    -3.609638    -1.136625     0.329927
 C    -1.646521    -0.137192     2.020506
 O     1.670170    -0.630300     1.104503
 C     2.541370    -1.750866    -1.220289
 C     2.112118     1.048367    -1.048290
 P     1.351026    -0.534232    -0.537454
 P    -2.042539    -0.176829     0.228041
 C    -0.493280    -2.710757    -1.035389
 O    -0.488106    -3.855946    -0.883386
 C    -2.226525     2.470227    -0.357822
 C    -1.283960     3.123330     0.438141
 H    -0.991959     2.672410     1.386103
 C    -2.640115     3.019036    -1.584914
 C    -3.692992     2.334063    -2.400629
 H    -3.760640     2.769290    -3.407134
 H    -3.500953     1.255785    -2.494006
 H    -4.682101     2.430403    -1.923646
 C    -0.741188     4.337024     0.025819
 H    -0.002332     4.839400     0.654300
 C    -2.073142     4.235121    -1.979467
 H    -2.386806     4.675283    -2.930303
 C    -1.137150     4.897689    -1.186091
 H    -0.718775     5.851372    -1.516225
 C    -3.524376    -2.514376     0.565617
 C    -4.867941    -0.548920     0.172783
 C    -5.931842    -2.698368     0.485001
 C    -6.022221    -1.329467     0.246921
 C    -4.677770    -3.288234     0.647720
 H    -2.549153    -2.992200     0.680915
 H    -4.595400    -4.361748     0.833846
 H    -6.837041    -3.307674     0.543082
 H    -7.000473    -0.859238     0.118121
 H    -4.937991     0.524515    -0.004859
 C    -2.216004     0.812285     2.876948
 C    -0.790483    -1.109321     2.545093
 C    -1.032918    -0.153790     4.749693
 C    -0.486945    -1.118771     3.904725
 C    -1.901618     0.808744     4.234020
 H    -2.906438     1.555265     2.471754
 H    -2.340750     1.560693     4.894339
 H    -0.783144    -0.152530     5.813433
 H     0.194016    -1.875065     4.301937
 H    -0.337913    -1.844198     1.878498
 C     2.802114    -0.191014     1.743980
 C     3.933791    -1.003521     1.816542
 H     3.920533    -1.980949     1.335607
 C     2.770905     1.068714     2.365094
 C     1.538665     1.912358     2.301891
 H     0.661042     1.352322     2.657203
 H     1.650418     2.818742     2.912406
 H     1.327599     2.220528     1.266438
 C     5.069944    -0.555367     2.487085
 H     5.954885    -1.194043     2.536591
 C     3.923530     1.491056     3.033528
 H     3.915173     2.470221     3.520009
 C     5.068366     0.698628     3.092665
 H     5.954608     1.057735     3.620706
 C     2.653432    -3.005296    -0.605700
 C     3.221052    -1.521596    -2.421664
 C     4.134156    -3.758478    -2.357857
 C     4.012806    -2.521132    -2.986076
 C     3.450485    -3.998504    -1.165325
 H     2.105352    -3.206502     0.317882
 H     3.531126    -4.969948    -0.671996
 H     4.756880    -4.539856    -2.799746
 H     4.540800    -2.327530    -3.922920
 H     3.135364    -0.554103    -2.921678
 C     1.301082     2.048878    -1.594036
 C     3.489199     1.285768    -0.901633
 C     3.220010     3.489922    -1.850503
 C     4.034656     2.504866    -1.289801
 C     1.856027     3.258968    -2.008318
 H     0.225023     1.882635    -1.682090
 H     1.209650     4.023711    -2.441467
 H     3.653719     4.441751    -2.167292
 H     5.104859     2.682721    -1.161794
 H     4.139683     0.512457    -0.489626
