  82
scf done:    -3423.185152
 C     0.033695    -4.053392    -0.828994
 H     0.599881    -4.931040    -0.494738
 H    -1.040770    -4.260434    -0.753963
 C     0.476001    -3.490286    -2.141827
 H     1.310119    -4.026482    -2.616153
 H    -0.333453    -3.352110    -2.873838
 H     0.897236    -2.402363    -2.039248
Co     0.726354    -2.311774    -0.299357
 O    -1.298589     0.195155    -0.577648
 C    -2.761056    -2.131230    -0.407866
 C    -1.405847    -1.008048     1.881893
 O     1.452491     0.496456     0.975521
 C     3.663085    -0.663761    -0.115046
 C     1.666386     0.558982    -1.812765
 P     1.848056    -0.502764    -0.320583
 P    -1.153076    -1.372705     0.099461
 C     1.668311    -3.036580     0.927497
 O     2.229329    -3.521879     1.817727
 C    -2.421195     0.961525    -0.605387
 C    -2.774175     1.773132     0.475833
 H    -2.145783     1.780931     1.367709
 C    -3.211070     0.979515    -1.759143
 H    -2.913571     0.361217    -2.608491
 C    -3.923774     2.557970     0.409543
 H    -4.191805     3.180842     1.267584
 C    -4.356040     1.766568    -1.810091
 H    -4.968370     1.760163    -2.716494
 C    -4.740879     2.566412    -0.725567
 C    -5.970768     3.424472    -0.798728
 H    -6.267858     3.787555     0.195275
 H    -6.821609     2.872829    -1.226725
 H    -5.803690     4.307788    -1.437368
 H    -2.839243    -1.942321    -1.493395
 H    -2.607910    -3.219033    -0.316490
 C    -4.055001    -1.740813     0.300122
 H    -4.181334    -0.647902     0.304286
 H    -3.997842    -2.045353     1.358013
 C    -5.272540    -2.382564    -0.347375
 H    -5.386189    -2.047927    -1.391109
 H    -5.191520    -3.481595    -0.359004
 H    -6.197759    -2.120210     0.188055
 H    -0.573371    -0.337528     2.150540
 H    -2.347920    -0.454425     2.024562
 C    -1.380685    -2.260186     2.751447
 H    -0.431682    -2.792996     2.587139
 H    -2.174735    -2.957840     2.431824
 C    -1.549054    -1.942388     4.229057
 H    -0.747682    -1.273782     4.581568
 H    -2.509814    -1.440019     4.427314
 H    -1.515644    -2.855648     4.842431
 C     1.720316     1.832346     1.049321
 C     0.797204     2.752366     0.547816
 H    -0.118753     2.379755     0.088920
 C     2.892332     2.287054     1.653671
 H     3.596769     1.560658     2.063183
 C     1.066673     4.114545     0.626242
 H     0.339279     4.823766     0.220949
 C     3.147608     3.654993     1.724709
 H     4.072920     4.000843     2.194068
 C     2.246974     4.594052     1.209474
 C     2.515153     6.067902     1.310403
 H     1.988874     6.509362     2.173368
 H     2.170359     6.602550     0.412798
 H     3.587111     6.275059     1.439537
 H     4.139924     0.329960    -0.109083
 H     3.805200    -1.106738     0.885159
 C     4.270662    -1.568460    -1.181117
 H     4.164374    -1.096347    -2.173684
 H     3.678228    -2.498798    -1.223318
 C     5.733637    -1.890141    -0.922546
 H     6.346683    -0.975175    -0.890198
 H     5.857910    -2.407617     0.041725
 H     6.146542    -2.541972    -1.707360
 H     1.624545    -0.157602    -2.652019
 H     0.644416     0.964709    -1.736768
 C     2.693580     1.647633    -2.105794
 H     3.671177     1.185062    -2.321600
 H     2.845738     2.282189    -1.219855
 C     2.271665     2.520240    -3.277939
 H     2.118318     1.923022    -4.191423
 H     1.324703     3.038694    -3.058573
 H     3.028691     3.287230    -3.501488
