 102
scf done:    -4333.083094
 C     0.653204    -3.093764    -1.795959
 H     1.707276    -3.001072    -2.085682
 H     0.425345    -4.126015    -1.502951
 C    -0.321724    -2.488474    -2.745568
 H     0.127928    -2.087565    -3.666377
 H    -1.189606    -3.115439    -2.991897
 H    -0.817295    -1.516747    -2.312409
Co    -0.118872    -1.669988    -0.711464
 O    -2.169755     0.814816    -1.215787
 C    -3.330964    -1.437374    -0.546139
 C    -2.044904     0.208475     1.480226
 O     1.780973     0.185099     0.988930
 C     3.223036    -1.173600    -1.040876
 C     1.699395     1.171346    -1.556081
 P     1.621722    -0.392485    -0.590529
 P    -1.812665    -0.478591    -0.185077
 C    -0.252932    -2.779852     0.579855
 O    -0.209717    -3.544211     1.450779
 C    -2.128901     2.144397    -0.945516
 C    -1.145686     2.706520    -0.133587
 H    -0.389393     2.061653     0.310222
 C    -3.100889     2.949208    -1.565302
 C    -4.142709     2.322709    -2.438365
 H    -4.877558     3.066586    -2.776132
 H    -3.690405     1.860047    -3.330970
 H    -4.668224     1.517013    -1.903444
 C    -1.125744     4.081543     0.084532
 H    -0.350205     4.512069     0.721449
 C    -3.053413     4.326078    -1.335422
 H    -3.804830     4.962050    -1.812449
 C    -2.080508     4.897802    -0.515471
 H    -2.068245     5.977506    -0.350705
 C    -3.990383    -1.317885    -1.767962
 H    -3.651216    -0.557696    -2.472484
 C    -3.755324    -2.425591     0.363268
 O    -3.063596    -2.493322     1.512948
 C    -3.295826    -3.536304     2.416129
 H    -4.309146    -3.479741     2.850713
 H    -2.551789    -3.423084     3.213581
 H    -3.156896    -4.521336     1.939278
 C    -5.063735    -2.149156    -2.091681
 H    -5.568372    -2.040518    -3.054022
 C    -4.832010    -3.257785     0.046083
 H    -5.167009    -4.018798     0.751470
 C    -5.481022    -3.114075    -1.180796
 H    -6.320703    -3.771002    -1.420639
 C    -1.023808     0.021832     2.411116
 H    -0.125050    -0.512217     2.098212
 C    -3.198747     0.928534     1.848711
 O    -4.148649     1.061681     0.908420
 C    -5.244055     1.899783     1.149011
 H    -5.858043     1.539105     1.992235
 H    -5.852586     1.885267     0.236510
 H    -4.920159     2.935784     1.347093
 C    -1.127709     0.539700     3.700935
 H    -0.316736     0.390734     4.416405
 C    -3.296709     1.464274     3.136502
 H    -4.174844     2.038140     3.432507
 C    -2.263625     1.262977     4.052066
 H    -2.355322     1.686762     5.055440
 C     2.812216     0.593020     1.780994
 C     3.878895    -0.249705     2.089138
 H     3.891498    -1.251545     1.670780
 C     2.724110     1.870251     2.368397
 C     1.581049     2.778852     2.047317
 H     1.545162     3.000284     0.969604
 H     0.616107     2.320273     2.311036
 H     1.670249     3.728956     2.592176
 C     4.889745     0.178253     2.948163
 H     5.721301    -0.494099     3.173396
 C     3.742334     2.268062     3.237540
 H     3.677901     3.260018     3.694334
 C     4.828948     1.442652     3.525988
 H     5.613102     1.782849     4.206158
 C     3.976853    -0.719941    -2.126979
 H     3.693040     0.213039    -2.615949
 C     3.584151    -2.408814    -0.458362
 O     2.833120    -2.815528     0.580155
 C     2.975809    -4.117736     1.081171
 H     2.872361    -4.866809     0.278020
 H     2.163728    -4.256571     1.803870
 H     3.948940    -4.256101     1.583906
 C     5.067048    -1.438280    -2.615413
 H     5.636416    -1.054593    -3.464406
 C     4.678256    -3.133076    -0.940102
 H     4.956367    -4.080941    -0.479302
 C     5.416748    -2.643024    -2.015538
 H     6.269823    -3.217162    -2.385366
 C     0.684094     1.395540    -2.484462
 H    -0.079665     0.624605    -2.605808
 C     2.674717     2.174771    -1.369118
 O     3.660592     1.879704    -0.508768
 C     4.643470     2.827029    -0.200113
 H     5.243365     3.091447    -1.088453
 H     5.289062     2.362285     0.555108
 H     4.202678     3.744462     0.226364
 C     0.600628     2.586900    -3.204572
 H    -0.218243     2.747143    -3.908024
 C     2.587807     3.380564    -2.070655
 H     3.328509     4.165620    -1.915594
 C     1.546889     3.579258    -2.980006
 H     1.482906     4.529901    -3.515172
