 102
scf done:    -4333.099468
 C    -1.671020     1.075733    -3.071502
 H    -1.634222     0.646505    -4.079761
 H    -2.708442     1.310733    -2.797428
 C    -0.688442     2.166138    -2.809275
 H     0.009919     2.367190    -3.633091
 H    -1.133925     3.104451    -2.448190
 H     0.017662     1.924156    -1.902688
Co    -0.517493     0.264651    -1.718385
 O    -3.098048     1.425918     0.038219
 C    -3.570614    -0.936505    -0.983563
 C    -1.967665    -0.656914     1.283380
 O     1.275538    -1.592385     0.114727
 C     2.806414     0.231602    -1.292653
 C     1.452366     0.949264     1.063302
 P     1.200927    -0.016256    -0.463382
 P    -2.162258     0.065617    -0.385277
 C    -0.136189    -1.091336    -2.704954
 O     0.035277    -2.060350    -3.315303
 C    -2.603549     2.688015    -0.042540
 C    -1.396295     3.053192     0.554397
 H    -0.814270     2.313854     1.106830
 C    -3.345329     3.644213    -0.741799
 H    -4.284496     3.337123    -1.206117
 C    -0.934827     4.362801     0.431894
 H     0.016762     4.628485     0.899315
 C    -2.875158     4.948421    -0.846962
 H    -3.463506     5.684744    -1.402286
 C    -1.657361     5.333457    -0.268441
 C    -1.165131     6.748229    -0.375496
 H    -0.096889     6.821614    -0.126183
 H    -1.710716     7.415005     0.313185
 H    -1.305111     7.149129    -1.391068
 C    -3.499336    -1.650557    -2.184840
 H    -2.587432    -1.607803    -2.781067
 C    -4.749424    -1.006849    -0.234537
 H    -4.824037    -0.456617     0.706455
 C    -4.570831    -2.416263    -2.622136
 H    -4.521779    -2.980948    -3.554965
 C    -5.836225    -1.761220    -0.666120
 H    -6.741271    -1.789681    -0.058783
 C    -5.749617    -2.476164    -1.868905
 O    -6.741206    -3.239634    -2.369211
 C    -7.943193    -3.337705    -1.659810
 H    -8.436661    -2.355973    -1.547351
 H    -8.599004    -3.998638    -2.240876
 H    -7.795166    -3.775532    -0.656636
 C    -2.307886     0.031134     2.455021
 H    -2.756079     1.024271     2.383723
 C    -1.414030    -1.934922     1.393662
 H    -1.135735    -2.485739     0.492475
 C    -2.072073    -0.532490     3.701865
 H    -2.326371    -0.002844     4.622251
 C    -1.167227    -2.509405     2.638264
 H    -0.716765    -3.500943     2.684787
 C    -1.484949    -1.800341     3.804930
 O    -1.256459    -2.254746     5.055057
 C    -0.650126    -3.506713     5.213555
 H     0.351175    -3.540410     4.747897
 H    -0.545827    -3.672166     6.293473
 H    -1.264059    -4.319179     4.786610
 C     2.425522    -2.289809     0.352380
 C     2.962258    -2.363488     1.636184
 H     2.469000    -1.837850     2.454686
 C     3.047963    -2.960733    -0.702629
 H     2.606653    -2.895189    -1.699210
 C     4.129146    -3.095928     1.853378
 H     4.547015    -3.145275     2.862904
 C     4.211182    -3.683433    -0.469938
 H     4.694632    -4.198197    -1.305076
 C     4.778231    -3.762271     0.809964
 C     6.037200    -4.546536     1.043440
 H     6.379350    -4.458687     2.084241
 H     6.852717    -4.198160     0.390023
 H     5.887809    -5.617195     0.829200
 C     4.024505     0.221440    -0.587101
 H     4.025170     0.100206     0.498162
 C     2.844872     0.401857    -2.677346
 H     1.902178     0.418325    -3.229732
 C     5.229545     0.356450    -1.251194
 H     6.179804     0.338688    -0.714709
 C     4.051502     0.548595    -3.359597
 H     4.039677     0.681961    -4.441350
 C     5.254925     0.518281    -2.646446
 O     6.471109     0.639933    -3.205369
 C     6.566386     0.801444    -4.594027
 H     6.063013     1.723065    -4.934867
 H     7.635672     0.873228    -4.829213
 H     6.137678    -0.059132    -5.136641
 C     2.001736     2.240836     0.995819
 H     2.374303     2.625831     0.042853
 C     0.982849     0.492653     2.295018
 H     0.541231    -0.501833     2.369821
 C     2.078658     3.040680     2.124010
 H     2.508980     4.043211     2.082978
 C     1.051241     1.288658     3.437719
 H     0.662063     0.893181     4.375946
 C     1.595695     2.574399     3.356980
 O     1.696668     3.424045     4.395516
 C     1.196066     3.025363     5.641666
 H     1.724117     2.137314     6.031320
 H     1.358279     3.864967     6.329185
 H     0.115541     2.802887     5.596062
