  98
scf done:    -4032.432474
 C    -0.825076     0.437954     4.059651
 H    -0.414170     1.032386     4.884455
 H    -1.899767     0.632130     3.969743
 C    -0.440791    -1.006977     4.083734
 H     0.170933    -1.306463     4.946501
 H    -1.282106    -1.706131     3.968379
 H     0.247809    -1.297991     3.183650
Co     0.266256     0.291342     2.448678
 O    -1.600015    -1.418512     0.550018
 C    -3.082194     0.673577     1.665400
 C    -1.245426     1.031895    -0.551343
 O     1.850756    -0.063575    -0.479659
 C     3.481642    -0.286254     1.712715
 C     1.587520    -2.347647     0.809043
 P     1.740451    -0.517487     1.122731
 P    -1.385571     0.180672     1.073403
 C     1.179231     1.645105     2.947628
 O     1.739437     2.613050     3.251742
 C    -2.682054    -2.007994    -0.036769
 C    -3.404641    -2.943946     0.702147
 H    -3.099447    -3.147571     1.730764
 C    -3.028683    -1.769140    -1.369181
 H    -2.439036    -1.076101    -1.969493
 C    -4.495737    -3.592910     0.130393
 H    -5.057201    -4.319493     0.724381
 C    -4.127662    -2.415607    -1.922769
 H    -4.399532    -2.203456    -2.960398
 C    -4.890775    -3.328831    -1.184882
 C    -6.097668    -3.985486    -1.788646
 H    -6.453772    -4.822428    -1.171579
 H    -5.885215    -4.372900    -2.796776
 H    -6.928678    -3.267142    -1.887466
 H    -2.897691     1.647224     2.148229
 H    -3.318032    -0.029221     2.479968
 C    -4.230310     0.772241     0.703855
 C    -5.252442    -0.184239     0.709524
 H    -5.210897    -1.008242     1.424106
 C    -4.324982     1.835965    -0.204742
 H    -3.566026     2.622030    -0.200040
 C    -6.309146    -0.112716    -0.193241
 H    -7.087946    -0.878943    -0.172701
 C    -5.380403     1.908441    -1.111311
 H    -5.429063     2.744157    -1.813795
 C    -6.372137     0.928863    -1.117444
 H    -7.198196     0.985141    -1.830395
 H    -2.156490     0.812023    -1.129334
 H    -0.410870     0.522705    -1.059549
 C    -1.018001     2.521478    -0.548144
 C    -0.973592     3.188601    -1.779312
 H    -1.086077     2.614058    -2.702485
 C    -0.860739     3.274556     0.619743
 H    -0.859651     2.771204     1.589305
 C    -0.777729     4.564212    -1.841478
 H    -0.744144     5.062143    -2.813722
 C    -0.661481     4.653172     0.560589
 H    -0.531517     5.215990     1.487985
 C    -0.619382     5.304397    -0.669361
 H    -0.463928     6.384954    -0.716770
 C     2.088982     1.154525    -1.033317
 C     2.153035     1.182168    -2.428181
 H     2.024345     0.243614    -2.971595
 C     2.262167     2.334027    -0.307861
 H     2.191435     2.341641     0.778389
 C     2.382387     2.386211    -3.086321
 H     2.427033     2.395032    -4.179079
 C     2.495239     3.526956    -0.986103
 H     2.613089     4.443633    -0.402722
 C     2.556802     3.582638    -2.381592
 C     2.778697     4.887946    -3.087527
 H     2.855620     4.750930    -4.175479
 H     3.701064     5.382017    -2.743746
 H     1.947464     5.585510    -2.893267
 H     3.441332    -0.589753     2.770871
 H     3.643347     0.803614     1.719411
 C     4.571679    -1.001446     0.980458
 C     4.991469    -0.577483    -0.287361
 H     4.533373     0.302453    -0.743944
 C     5.185558    -2.126053     1.546311
 H     4.879481    -2.460136     2.541969
 C     5.983878    -1.271077    -0.973596
 H     6.291644    -0.929567    -1.964668
 C     6.183235    -2.818950     0.862032
 H     6.651007    -3.692681     1.322133
 C     6.581709    -2.395988    -0.404895
 H     7.361094    -2.937968    -0.945660
 H     0.568457    -2.594788     1.138419
 H     2.299187    -2.838707     1.491681
 C     1.787637    -2.799635    -0.609517
 C     3.016793    -3.283926    -1.064474
 H     3.858908    -3.359731    -0.374702
 C     0.722779    -2.717864    -1.515864
 H    -0.241315    -2.348055    -1.164825
 C     3.182641    -3.662984    -2.395541
 H     4.154355    -4.034647    -2.729974
 C     0.885984    -3.097256    -2.844635
 H     0.039466    -3.029928    -3.532907
 C     2.121060    -3.567081    -3.292868
 H     2.252352    -3.864889    -4.336089
