 118
scf done:    -4790.850195
 C     0.682143    -0.368619    -3.444001
 H     0.084592     0.036024    -4.271040
 H     1.754850    -0.253607    -3.628156
 C     0.238861    -1.697274    -2.946257
 H    -0.707064    -2.063449    -3.369923
 H     1.008967    -2.483282    -2.995482
 H     0.049090    -1.716762    -1.784195
Co     0.107701     0.035451    -1.627836
 O     1.521090     0.666854     1.228807
 C     2.528028    -1.609173     0.134144
 C     3.448997     0.956777    -0.583224
 O    -2.251741     1.332884     0.008026
 C    -3.060343    -0.973013    -1.214376
 C    -1.428148    -1.024199     1.247694
 P    -1.620810    -0.150996    -0.363347
 P     1.845737     0.057363    -0.308229
 C    -0.274855     1.580779    -2.194598
 O    -0.466050     2.642958    -2.623975
 C     1.275213     1.969510     1.495009
 C     1.106176     2.953784     0.519552
 H     1.189493     2.702195    -0.536620
 C     1.200762     2.302433     2.862278
 C     1.458917     1.238763     3.880462
 H     0.755263     0.401951     3.757055
 H     2.461350     0.807491     3.734652
 H     1.381151     1.635647     4.902894
 C     0.818181     4.265157     0.896863
 H     0.678759     5.020757     0.119981
 C     0.906274     3.619573     3.210176
 H     0.843583     3.878975     4.271421
 C     0.705117     4.604654     2.241035
 H     0.475372     5.630416     2.538005
 C     3.127576    -2.266525    -0.958808
 O     3.227563    -1.522344    -2.081322
 C     3.942790    -2.002204    -3.181759
 H     3.949088    -1.194376    -3.924024
 H     4.983033    -2.251313    -2.910740
 H     3.463481    -2.891125    -3.629281
 C     2.462289    -2.311277     1.354708
 O     1.961222    -1.681935     2.429896
 C     2.111231    -2.269782     3.687413
 H     1.690190    -1.564002     4.412645
 H     3.175167    -2.450394     3.926804
 H     1.560370    -3.220786     3.773224
 C     2.942217    -3.630443     1.440865
 H     2.887534    -4.171171     2.384180
 C     3.606570    -3.577888    -0.879699
 H     4.064524    -4.060707    -1.741946
 C     3.499376    -4.252164     0.330509
 H     3.867729    -5.277375     0.414562
 C     4.504924     0.847510     0.346622
 O     4.264487     0.116676     1.447971
 C     5.283574    -0.112289     2.373254
 H     4.855168    -0.760613     3.148441
 H     6.147859    -0.625867     1.916630
 H     5.630289     0.823740     2.845173
 C     3.651568     1.780305    -1.707760
 O     2.607950     1.933185    -2.535929
 C     2.694232     2.791084    -3.636136
 H     1.701494     2.786762    -4.101906
 H     3.445684     2.445202    -4.368001
 H     2.939562     3.822837    -3.330054
 C     4.880944     2.416010    -1.932947
 H     5.029246     3.043891    -2.810183
 C     5.737032     1.478185     0.126383
 H     6.550322     1.380228     0.844028
 C     5.910093     2.249484    -1.015766
 H     6.868627     2.745202    -1.188391
 C    -3.479524     1.658156     0.485456
 C    -4.359285     0.744035     1.065134
 H    -4.078055    -0.305368     1.161316
 C    -3.809442     3.022013     0.386512
 C    -2.822507     3.971256    -0.216399
 H    -3.233056     4.989227    -0.269978
 H    -1.892474     3.992792     0.373776
 H    -2.526011     3.646264    -1.224893
 C    -5.593370     1.183509     1.543743
 H    -6.278889     0.462196     1.995817
 C    -5.050572     3.431064     0.877038
 H    -5.317562     4.489345     0.804152
 C    -5.945612     2.526884     1.450716
 H    -6.911772     2.873662     1.824526
 C    -3.773750    -2.117833    -0.795931
 O    -3.631986    -2.496145     0.486899
 C    -4.225500    -3.672082     0.952229
 H    -3.895286    -3.787903     1.992530
 H    -5.327705    -3.615618     0.923684
 H    -3.899083    -4.553079     0.372158
 C    -3.400224    -0.443643    -2.483580
 O    -2.871270     0.747483    -2.786486
 C    -3.040084     1.297452    -4.063183
 H    -2.441495     2.215793    -4.075947
 H    -4.097483     1.543481    -4.261047
 H    -2.672576     0.616257    -4.850071
 C    -4.265867    -1.117380    -3.355027
 H    -4.494364    -0.705301    -4.336617
 C    -4.636966    -2.799670    -1.663937
 H    -5.159418    -3.696041    -1.333377
 C    -4.857105    -2.303082    -2.941862
 H    -5.532806    -2.833451    -3.617177
 C    -1.045604    -2.375742     1.185892
 O    -0.877193    -2.864938    -0.059920
 C    -0.412813    -4.173924    -0.243994
 H    -0.311851    -4.316072    -1.327185
 H     0.570810    -4.322498     0.231779
 H    -1.129316    -4.917349     0.147156
 C    -1.553120    -0.434737     2.518186
 O    -1.759744     0.886852     2.563482
 C    -2.166794     1.508652     3.748519
 H    -2.353048     2.558492     3.491357
 H    -1.383153     1.467525     4.523822
 H    -3.097254     1.060578     4.137594
 C    -1.457131    -1.220403     3.678823
 H    -1.608303    -0.769966     4.659136
 C    -0.916172    -3.159442     2.333916
 H    -0.644025    -4.212044     2.265280
 C    -1.158253    -2.571676     3.572549
 H    -1.087344    -3.177706     4.479475
