  80
scf done:    -4715.662154
 C     0.027801     3.658961    -0.791979
 H    -0.674867     4.422186    -0.437574
 H     1.062233     3.998595    -0.665349
 C    -0.300526     3.073351    -2.121139
 H    -1.214434     3.461710    -2.592150
 H     0.531060     3.095213    -2.840383
 H    -0.514395     1.918661    -2.066990
Co    -0.388154     1.811530    -0.323204
 O     2.284046     0.055893    -1.045297
 C     2.925833     2.453409     0.006751
 C     1.938116     0.359168     1.663070
 O    -2.202287    -0.530248     0.946832
 C    -2.843967     0.048442    -1.667981
 C    -0.650985    -1.609892    -0.941651
 P    -1.449055    -0.033861    -0.484942
 P     1.617068     1.174476     0.055677
 C    -1.278509     2.393031     1.013521
 O    -1.780869     2.795661     1.975452
 C     3.280141    -0.830029    -0.768775
 C     4.595985    -0.561491    -1.152423
 H     4.828775     0.380666    -1.649272
 C     2.978612    -2.034068    -0.126356
 H     1.949644    -2.232058     0.175284
 C     5.604323    -1.486552    -0.892148
 H     6.634949    -1.283754    -1.187756
 C     3.980512    -2.960255     0.135741
 H     3.748974    -3.899311     0.640541
 C     5.292397    -2.680796    -0.245566
Cl     6.547575    -3.832186     0.085515
 C     3.201186     3.251063     1.123838
 C     3.528175     2.767219    -1.217741
 C     4.699578     4.614989    -0.194616
 C     4.415166     3.837377    -1.316430
 C     4.086734     4.321953     1.023434
 H     2.719039     3.032322     2.080074
 H     4.299549     4.932524     1.904268
 H     5.394595     5.454513    -0.270787
 H     4.884351     4.067680    -2.276188
 H     3.294225     2.163575    -2.098445
 C     0.854870    -0.157755     2.382360
 C     3.237713     0.172517     2.158207
 C     2.360715    -1.051178     4.045369
 C     3.446429    -0.528797     3.341659
 C     1.065959    -0.862261     3.566366
 H    -0.162948    -0.006681     2.018175
 H     0.210337    -1.259642     4.117338
 H     2.526315    -1.603560     4.973740
 H     4.463558    -0.673970     3.712858
 H     4.093749     0.570587     1.609281
 C    -3.554100    -0.614813     1.127143
 C    -4.271159    -1.705489     0.632080
 H    -3.748686    -2.486603     0.077849
 C    -4.210045     0.390499     1.838270
 H    -3.633817     1.236463     2.216242
 C    -5.644418    -1.788547     0.837873
 H    -6.215359    -2.633573     0.450237
 C    -5.583055     0.308126     2.050214
 H    -6.106907     1.088838     2.603935
 C    -6.295111    -0.778437     1.544588
Cl    -8.007791    -0.876083     1.796840
 C    -3.568575     1.246766    -1.717303
 C    -3.235772    -1.024917    -2.476893
 C    -5.066575     0.288710    -3.348084
 C    -4.339881    -0.900952    -3.316791
 C    -4.680627     1.362454    -2.546510
 H    -3.247764     2.085143    -1.093072
 H    -5.246912     2.296352    -2.569094
 H    -5.936797     0.380129    -4.002531
 H    -4.638120    -1.741675    -3.947636
 H    -2.675124    -1.961822    -2.449629
 C     0.093691    -1.651935    -2.127065
 C    -0.755163    -2.758600    -0.151837
 C     0.572878    -3.989150    -1.753597
 C    -0.143628    -3.945438    -0.559668
 C     0.693875    -2.838589    -2.534928
 H     0.212896    -0.746361    -2.726923
 H     1.273889    -2.863318    -3.460010
 H     1.054155    -4.917196    -2.070560
 H    -0.227567    -4.839299     0.063112
 H    -1.313633    -2.715318     0.784959
