 110
scf done:    -4189.581736
 C    -1.464857     0.298339     4.049484
 H    -1.246071     0.947100     4.906019
 H    -2.541863     0.313211     3.846754
 C    -0.854589    -1.064209     4.130377
 H    -0.266223    -1.250381     5.039646
 H    -1.560320    -1.892090     3.972332
 H    -0.070204    -1.249398     3.282228
Co    -0.208771     0.337940     2.556063
 O    -1.717444    -1.505353     0.451412
 C    -3.470796     0.440297     1.420057
 C    -1.438444     0.986471    -0.574674
 O     1.680195     0.277349    -0.211000
 C     3.113855     0.160582     2.133201
 C     1.561300    -2.074031     1.029175
 P     1.475094    -0.244899     1.367223
 P    -1.685088     0.095401     1.015395
 C     0.457507     1.786959     3.171130
 O     0.838871     2.811637     3.553850
 C    -2.631266    -2.181044    -0.304069
 C    -2.806783    -1.916738    -1.662900
 H    -2.228961    -1.123791    -2.136634
 C    -3.318846    -3.237117     0.318832
 C    -3.081428    -3.528927     1.768275
 H    -2.009373    -3.672753     1.972573
 H    -3.410301    -2.693206     2.407908
 H    -3.623019    -4.430515     2.084867
 C    -3.715516    -2.666290    -2.405618
 H    -3.860614    -2.441768    -3.464646
 C    -4.213515    -3.982649    -0.451696
 H    -4.756063    -4.805773     0.021861
 C    -4.424753    -3.699879    -1.800394
 H    -5.135169    -4.294595    -2.378619
 H    -3.735855    -0.282675     2.206657
 H    -3.427304     1.424024     1.915079
 C    -4.502097     0.440127     0.331178
 C    -4.595681     1.503435    -0.574781
 H    -3.930300     2.364828    -0.476910
 C    -5.405968    -0.621733     0.207712
 H    -5.358251    -1.445570     0.924182
 C    -5.538125     1.468724    -1.600589
 H    -5.596429     2.300506    -2.307092
 C    -6.359983    -0.670036    -0.809867
 C    -7.324042    -1.815799    -0.914003
 H    -7.322970    -2.244160    -1.927991
 H    -7.067776    -2.620135    -0.211158
 H    -8.354409    -1.488731    -0.698327
 C    -6.405723     0.388196    -1.726091
 H    -7.139546     0.368956    -2.536891
 H    -0.531093     0.532149    -1.003605
 H    -2.277851     0.730757    -1.239916
 C    -1.289731     2.485117    -0.530021
 C    -1.415916     3.240123     0.640030
 H    -1.591722     2.742838     1.595701
 C    -1.020202     3.153102    -1.728799
 H    -0.910007     2.567437    -2.646833
 C    -1.270902     4.625059     0.601164
 H    -1.362951     5.201329     1.524819
 C    -0.867368     4.539957    -1.786826
 C    -0.538362     5.212468    -3.086938
 H    -1.199002     4.868614    -3.897472
 H    -0.629493     6.305266    -3.012185
 H     0.495925     4.979022    -3.388074
 C    -0.998858     5.271421    -0.600651
 H    -0.882280     6.358453    -0.622629
 C     1.984079     1.526301    -0.664244
 C     1.902845     2.675967     0.119125
 H     1.544765     2.621624     1.145104
 C     2.398003     1.588914    -2.007758
 C     2.475937     0.334357    -2.818357
 H     2.904380     0.529095    -3.811082
 H     3.079588    -0.432408    -2.308090
 H     1.482612    -0.121711    -2.951892
 C     2.251124     3.910414    -0.425830
 H     2.175050     4.804993     0.194994
 C     2.741922     2.839715    -2.524284
 H     3.075553     2.900021    -3.564175
 C     2.678529     3.996303    -1.746601
 H     2.959988     4.960985    -2.174577
 H     3.153284     1.260714     2.173603
 H     2.997641    -0.175351     3.175838
 C     4.343912    -0.414875     1.506225
 C     5.009515    -1.493974     2.102654
 H     4.645115    -1.897283     3.051613
 C     4.842632     0.098022     0.305041
 H     4.345169     0.953033    -0.159100
 C     6.135860    -2.046471     1.498343
 H     6.652131    -2.884404     1.973001
 C     5.962691    -0.454691    -0.323372
 C     6.441394     0.108566    -1.629763
 H     5.660973     0.021901    -2.402693
 H     6.679625     1.179702    -1.537754
 H     7.339713    -0.410986    -1.991393
 C     6.605398    -1.535961     0.289150
 H     7.485056    -1.979500    -0.184918
 H     2.270258    -2.481650     1.767607
 H     0.556850    -2.439906     1.283576
 C     1.915861    -2.516754    -0.362187
 C     0.904377    -2.656624    -1.319560
 H    -0.126595    -2.436127    -1.042779
 C     3.230997    -2.815975    -0.725512
 H     4.026591    -2.721590     0.015907
 C     1.211308    -3.083623    -2.607225
 H     0.410481    -3.200987    -3.341879
 C     3.557286    -3.240303    -2.019003
 C     4.985036    -3.522964    -2.388248
 H     5.542563    -3.946993    -1.540817
 H     5.053090    -4.221303    -3.234923
 H     5.505928    -2.596012    -2.680752
 C     2.529060    -3.370922    -2.958255
 H     2.763395    -3.709871    -3.971316
