  80
scf done:    -3995.105344
 C    -1.969056    -1.570249    -2.797125
 H    -1.819951    -2.540911    -3.283693
 H    -3.026190    -1.432843    -2.539503
 C    -1.320328    -0.415067    -3.475269
 H    -0.744270    -0.663891    -4.377419
 H    -1.993068     0.429540    -3.685347
 H    -0.505845     0.099858    -2.801075
Co    -0.647703    -1.024653    -1.467130
 O    -3.134722     0.748627     0.152300
 C    -3.536939    -1.815384     0.014638
 C    -1.635238    -0.776348     1.779605
 O     1.661240    -0.952512     0.680214
 C     2.588877    -0.154331    -1.778148
 C     1.140213     1.616828    -0.074056
 P     1.132927    -0.110920    -0.669134
 P    -2.139009    -0.623024     0.016849
 C    -0.002787    -2.613590    -1.383669
 O     0.348173    -3.705140    -1.230881
 C    -2.778860     2.041422    -0.064520
 C    -1.985736     2.442989    -1.142112
 H    -1.586814     1.687031    -1.814907
 C    -3.293104     3.005589     0.807859
 H    -3.932293     2.685399     1.632711
 C    -1.696120     3.789443    -1.334570
 H    -1.068743     4.117877    -2.164191
 C    -3.004581     4.354341     0.619574
 H    -3.394014     5.118484     1.294714
 C    -2.198688     4.729913    -0.446334
 F    -1.889566     6.019228    -0.613963
 C    -3.236527    -3.180469    -0.072618
 C    -4.872173    -1.412790     0.104867
 C    -5.588225    -3.721903     0.034199
 C    -5.891907    -2.364861     0.109825
 C    -4.256089    -4.127188    -0.054284
 H    -2.198744    -3.508212    -0.163576
 H    -4.007932    -5.189316    -0.118532
 H    -6.388876    -4.465497     0.040310
 H    -6.933253    -2.039337     0.174353
 H    -5.107600    -0.349999     0.169350
 C    -2.166074     0.052920     2.774410
 C    -0.692864    -1.748941     2.130936
 C    -0.785430    -1.029917     4.435836
 C    -0.273699    -1.876019     3.453246
 C    -1.736002    -0.068045     4.093958
 H    -2.914222     0.799101     2.507313
 H    -2.149358     0.591470     4.861182
 H    -0.446029    -1.122424     5.470387
 H     0.469678    -2.633467     3.712334
 H    -0.262243    -2.394217     1.364818
 C     2.926680    -0.936906     1.191931
 C     3.295311    -0.000100     2.158826
 H     2.568797     0.740406     2.493764
 C     3.839276    -1.903088     0.763185
 H     3.522227    -2.628160     0.011429
 C     4.586000    -0.018034     2.682970
 H     4.901668     0.702308     3.439783
 C     5.127907    -1.925851     1.286273
 H     5.860312    -2.668507     0.965234
 C     5.487311    -0.977190     2.237022
 F     6.723363    -0.991764     2.736799
 C     2.500808    -0.883439    -2.969195
 C     3.805709     0.460887    -1.442961
 C     4.807195    -0.384664    -3.471865
 C     4.907304     0.341851    -2.284562
 C     3.602641    -0.994721    -3.815334
 H     1.554715    -1.370345    -3.217930
 H     3.519489    -1.564467    -4.743705
 H     5.674044    -0.475164    -4.131110
 H     5.851572     0.817341    -2.009625
 H     3.894669     1.034078    -0.517922
 C     1.609661     2.675325    -0.860422
 C     0.535376     1.898448     1.158716
 C     0.900538     4.261415     0.818790
 C     0.417026     3.212351     1.600668
 C     1.496899     3.989761    -0.410241
 H     2.068639     2.475563    -1.831226
 H     1.868522     4.808560    -1.030915
 H     0.795176     5.294050     1.158944
 H    -0.066589     3.416522     2.558505
 H     0.148222     1.082658     1.773449
