  84
scf done:    -6133.790034
 C    -0.937676    -2.247179    -3.215306
 H    -2.031718    -2.270519    -3.146431
 H    -0.623714    -2.039605    -4.243758
 C    -0.212648    -3.348151    -2.531815
 H    -0.869508    -4.106462    -2.082294
 H     0.586243    -3.819134    -3.118026
 H     0.346311    -2.986112    -1.557240
Co     0.052043    -1.286518    -1.829212
 O     1.864756    -1.507533     0.935171
 O     3.063596    -1.727324    -1.214496
 O     2.185822     0.601462    -0.475501
 O    -2.908023    -0.287315    -1.807209
 O    -2.531374    -2.239698    -0.241936
 O    -1.997833     0.040623     0.536384
 P    -1.735898    -0.903413    -0.804496
 P     1.734953    -0.975073    -0.631982
 C     0.477779    -0.070626    -2.971858
 O     0.659980     0.800284    -3.703617
 C     0.812080    -1.347730     1.808204
 C    -0.051822    -2.419417     2.023955
 H     0.109093    -3.353369     1.483783
 C     0.629153    -0.137255     2.474665
 H     1.305183     0.697218     2.283954
 C    -1.114782    -2.280012     2.908647
 H    -1.815414    -3.096952     3.087732
 C    -0.437674     0.008642     3.356222
 H    -0.624245     0.952549     3.870353
 C    -1.299431    -1.062045     3.550748
 F    -2.356704    -0.910289     4.352004
 C     4.335390    -1.809803    -0.687945
 C     4.592693    -2.523220     0.480558
 H     3.775397    -3.024599     0.997187
 C     5.369642    -1.182406    -1.379676
 H     5.143150    -0.645522    -2.301589
 C     5.886386    -2.551654     0.994330
 H     6.103654    -3.090495     1.917891
 C     6.660464    -1.205840    -0.866159
 H     7.472821    -0.686542    -1.376367
 C     6.910141    -1.878728     0.329988
Cl     8.507356    -1.872151     0.998285
 C     3.434049     1.106393    -0.200478
 C     4.013971     1.934469    -1.158373
 H     3.457591     2.151810    -2.072290
 C     4.102588     0.813214     0.987872
 H     3.639754     0.160986     1.728346
 C     5.294353     2.438035    -0.952056
 H     5.769942     3.075625    -1.698850
 C     5.387839     1.304636     1.189297
 H     5.941565     1.053676     2.094962
 C     5.982725     2.103883     0.213612
Cl     7.601913     2.669812     0.443882
 C    -3.604904     0.884405    -1.643731
 C    -3.059512     2.070911    -2.136429
 H    -2.093116     2.042059    -2.643347
 C    -4.844402     0.887302    -1.007261
 H    -5.266513    -0.048716    -0.642380
 C    -3.732162     3.273905    -1.952368
 H    -3.316840     4.218883    -2.305991
 C    -5.525789     2.088845    -0.828791
 H    -6.494724     2.121100    -0.327511
 C    -4.955166     3.268086    -1.290877
 F    -5.597049     4.420205    -1.100577
 C    -3.861665    -2.262391     0.089759
 C    -4.776809    -2.758282    -0.838080
 H    -4.415382    -3.098751    -1.809768
 C    -4.296569    -1.809437     1.335755
 H    -3.574542    -1.417822     2.049873
 C    -6.132708    -2.797313    -0.527993
 H    -6.858925    -3.176650    -1.248370
 C    -5.652421    -1.847096     1.649436
 H    -6.005777    -1.493336     2.619208
 C    -6.565599    -2.335561     0.715288
Cl    -8.253205    -2.370284     1.102409
 C    -1.759738     1.380767     0.669527
 C    -2.675668     2.113758     1.423557
 H    -3.540757     1.602172     1.847493
 C    -0.647364     2.007552     0.110922
 H     0.076662     1.433973    -0.464683
 C    -2.493098     3.480185     1.601594
 H    -3.212554     4.066219     2.175414
 C    -0.462413     3.375362     0.288976
 H     0.404215     3.873233    -0.148841
 C    -1.388028     4.109166     1.027333
Cl    -1.167693     5.815735     1.233537
