  80
scf done:    -4564.383121
 C     1.105288    -1.443588     3.290859
 H     1.798114    -1.088875     4.063018
 H     0.071992    -1.398152     3.653169
 C     1.482636    -2.735585     2.645927
 H     2.392143    -3.201214     3.049001
 H     0.664226    -3.467282     2.600836
 H     1.759726    -2.613008     1.514631
Co     1.485205    -0.885565     1.456719
 O    -1.060281    -0.392828    -0.441403
 O    -1.605027    -1.593383     1.740607
 O    -1.224671     0.853058     1.780733
 O     1.678241     0.072539    -1.690567
 O     3.812892    -0.848822    -0.634189
 O     2.007448    -2.341235    -1.396291
 P     2.207409    -0.990620    -0.512626
 P    -0.546325    -0.502761     1.157179
 C     2.622785     0.282000     2.022463
 O     3.309117     1.116399     2.426785
 C    -2.356110    -0.310581    -0.852581
 C    -2.961943    -1.439589    -1.408037
 H    -2.396836    -2.371089    -1.455052
 C    -3.065309     0.890611    -0.776362
 H    -2.583044     1.763700    -0.340823
 C    -4.269157    -1.375187    -1.880999
 H    -4.749153    -2.253545    -2.315435
 C    -4.374592     0.958391    -1.242405
 H    -4.936774     1.891787    -1.183731
 C    -4.972831    -0.175125    -1.792023
Cl    -6.603251    -0.090240    -2.373477
 C    -2.910833    -1.344684     2.293504
 H    -3.331534    -0.447776     1.811844
 C    -2.789645    -1.100228     3.783733
 H    -2.159546    -0.222411     3.979482
 H    -2.344360    -1.975594     4.281634
 H    -3.781628    -0.919350     4.224432
 C    -3.763588    -2.549019     1.960042
 H    -3.838007    -2.681723     0.872291
 H    -3.324838    -3.459435     2.396525
 H    -4.779068    -2.422648     2.363659
 C    -0.445844     2.031310     2.053407
 H     0.465633     1.995060     1.433337
 C    -0.055247     2.048495     3.516267
 H     0.511135     1.144596     3.775070
 H    -0.952099     2.100427     4.153444
 H     0.576356     2.922773     3.732522
 C    -1.273058     3.235856     1.660577
 H    -1.500337     3.229842     0.586545
 H    -2.217760     3.255403     2.225658
 H    -0.719412     4.162697     1.868270
 C     1.430917     1.388229    -1.447859
 C     0.277222     1.950764    -1.996967
 H    -0.391776     1.317083    -2.580035
 C     2.301858     2.177865    -0.693657
 H     3.211601     1.742903    -0.278030
 C    -0.012233     3.293485    -1.785703
 H    -0.913404     3.740176    -2.209339
 C     2.003380     3.518578    -0.462252
 H     2.669228     4.134467     0.144000
 C     0.846276     4.069726    -1.006017
Cl     0.451623     5.729097    -0.690664
 C     4.516576    -0.993014    -1.883843
 H     3.776941    -0.982093    -2.701401
 C     5.235907    -2.325018    -1.873749
 H     4.511106    -3.141361    -1.752340
 H     5.955595    -2.364696    -1.041800
 H     5.783263    -2.476012    -2.816438
 C     5.439659     0.197820    -2.024792
 H     4.866868     1.135743    -2.055548
 H     6.138403     0.243184    -1.175578
 H     6.024067     0.122109    -2.953867
 C     0.727488    -2.763216    -1.895584
 H     0.075830    -1.877499    -1.960414
 C     0.119913    -3.767659    -0.937123
 H    -0.095362    -3.299722     0.033807
 H     0.809473    -4.611046    -0.779271
 H    -0.822919    -4.167116    -1.340836
 C     0.962140    -3.315571    -3.284304
 H     1.410038    -2.546888    -3.930019
 H     1.642811    -4.180140    -3.247126
 H     0.012498    -3.639090    -3.735926
