  92
scf done:    -4872.813473
 C     2.685120    -1.582090    -2.368366
 H     3.426556    -1.170414    -3.063057
 H     3.147487    -2.354291    -1.740273
 C     1.375897    -1.944869    -2.979973
 H     1.270267    -1.683946    -4.041352
 H     1.067795    -2.988876    -2.823261
 H     0.490085    -1.381993    -2.474691
Co     1.479085    -0.330290    -1.482493
 O     1.250190    -2.413676     1.172542
 C     3.685558    -1.551534     0.725626
 C     1.777783     0.149007     1.847116
 O    -0.935041     0.380246     0.477542
 C    -0.308821     2.556313    -1.077185
 C    -1.740870     0.327560    -2.157106
 P    -0.338985     0.728817    -1.044205
 P     1.949042    -1.037986     0.454351
 C     2.441686     0.988428    -2.015939
 O     3.184818     1.837999    -2.270413
 C    -0.007693    -2.828744     0.876131
 C    -0.212472    -3.762218    -0.142364
 H     0.648596    -4.124065    -0.707447
 C    -1.094110    -2.368518     1.622626
 H    -0.925264    -1.632403     2.408652
 C    -1.493766    -4.240431    -0.408636
 H    -1.661070    -4.981628    -1.191788
 C    -2.376976    -2.832184     1.356437
 H    -3.229240    -2.465128     1.930248
 C    -2.569352    -3.769464     0.342615
Cl    -4.170031    -4.366135     0.026544
 C     4.035141    -2.776250     1.295723
 H     3.253576    -3.470302     1.607710
 C     4.689175    -0.665169     0.317732
 H     4.413477     0.284569    -0.149609
 C     5.383695    -3.098127     1.454764
 H     5.662020    -4.059444     1.894270
 C     6.040495    -0.972299     0.481857
 C     7.106825    -0.000627     0.066469
 H     7.947600    -0.511819    -0.426155
 H     6.711697     0.756093    -0.625871
 H     7.517199     0.531218     0.940956
 C     6.374359    -2.207709     1.054813
 H     7.427619    -2.473977     1.181781
 C     1.564233    -0.289781     3.155956
 H     1.478759    -1.358845     3.361000
 C     1.900667     1.516726     1.588114
 H     2.062230     1.856293     0.561665
 C     1.457422     0.643888     4.185432
 H     1.280250     0.305007     5.209391
 C     1.811759     2.463161     2.613430
 C     1.977717     3.927031     2.327800
 H     2.930693     4.300121     2.737354
 H     1.970492     4.128795     1.248265
 H     1.172739     4.519939     2.788852
 C     1.577245     2.006072     3.917132
 H     1.492308     2.729342     4.733293
 C    -2.075149     0.692870     1.150219
 C    -3.357198     0.565887     0.611191
 H    -3.493698     0.241464    -0.418557
 C    -1.915712     1.076086     2.486786
 H    -0.904280     1.156603     2.890850
 C    -4.469908     0.841163     1.403431
 H    -5.474779     0.744599     0.989268
 C    -3.026421     1.343628     3.278161
 H    -2.905673     1.642477     4.320631
 C    -4.304410     1.229711     2.730634
Cl    -5.694374     1.567126     3.710717
 C    -0.722989     3.353957    -0.005515
 H    -1.111306     2.904882     0.907028
 C     0.203658     3.166774    -2.226906
 H     0.539941     2.544929    -3.061466
 C    -0.625923     4.740030    -0.103237
 H    -0.948830     5.362035     0.734965
 C     0.312600     4.556257    -2.333953
 C     0.895184     5.171344    -3.572437
 H     1.914640     4.793704    -3.748793
 H     0.297728     4.919153    -4.462755
 H     0.943983     6.266365    -3.496512
 C    -0.112488     5.335976    -1.252658
 H    -0.032364     6.424816    -1.311649
 C    -2.487320     1.301600    -2.828921
 H    -2.256760     2.360016    -2.697679
 C    -2.066387    -1.024982    -2.320434
 H    -1.500185    -1.785479    -1.773553
 C    -3.535950     0.912646    -3.658861
 H    -4.119812     1.671426    -4.185484
 C    -3.113505    -1.427992    -3.155036
 C    -3.443951    -2.881475    -3.322412
 H    -2.535054    -3.477139    -3.495428
 H    -3.926308    -3.284474    -2.417997
 H    -4.125038    -3.043094    -4.169493
 C    -3.842612    -0.435893    -3.822732
 H    -4.662469    -0.729108    -4.484129
