 102
scf done:    -4333.236122
 C    -1.260086     2.235876    -3.499807
 H    -1.295260     1.963022    -4.560276
 H    -2.239255     2.601933    -3.168956
 C    -0.083025     3.054934    -3.092121
 H     0.650530     3.238170    -3.887913
 H    -0.337932     4.002590    -2.595071
 H     0.553736     2.537593    -2.254567
Co    -0.317478     1.019259    -2.306398
 O    -2.283340     1.894285     0.263769
 O    -3.387503     0.827932    -1.687736
 O    -1.847314    -0.589137    -0.152165
 O     1.401972    -1.428328    -1.204435
 O     2.703828     0.753678    -1.585089
 O     1.235793     0.479620     0.476096
 P     1.213365     0.202642    -1.139165
 P    -1.906784     0.838006    -0.992746
 C    -0.207739    -0.182601    -3.543175
 O    -0.214063    -1.016842    -4.336618
 C    -1.252118     2.355004     1.045893
 C    -0.497077     3.447908     0.627509
 H    -0.757252     3.945343    -0.307864
 C    -0.952884     1.723831     2.252257
 H    -1.537212     0.859236     2.569214
 C     0.569978     3.888948     1.407395
 H     1.157404     4.748948     1.072521
 C     0.114300     2.174692     3.019713
 H     0.354781     1.655650     3.951365
 C     0.906361     3.252572     2.606536
 C     2.095492     3.680044     3.415661
 H     1.847703     3.768932     4.484345
 H     2.489211     4.648934     3.076305
 H     2.908415     2.939778     3.330469
 C    -4.632629     0.667160    -1.126305
 C    -5.206581     1.660803    -0.338998
 H    -4.651986     2.579284    -0.148229
 C    -5.332027    -0.506857    -1.400275
 H    -4.866390    -1.263938    -2.032878
 C    -6.463884     1.442251     0.221301
 H    -6.906001     2.218927     0.851676
 C    -6.583306    -0.708005    -0.832542
 H    -7.115326    -1.641861    -1.034393
 C    -7.167706     0.254255     0.001859
 C    -8.495133    -0.000908     0.655118
 H    -8.936967     0.925487     1.048766
 H    -8.390782    -0.702188     1.500350
 H    -9.213439    -0.448073    -0.048774
 C    -2.843964    -1.288768     0.480553
 C    -3.001903    -2.627071     0.129522
 H    -2.340543    -3.050817    -0.628774
 C    -3.659076    -0.721280     1.461167
 H    -3.540159     0.328403     1.725347
 C    -4.004367    -3.384311     0.730633
 H    -4.127857    -4.431552     0.440869
 C    -4.661329    -1.489406     2.042009
 H    -5.313467    -1.027167     2.788159
 C    -4.862643    -2.828328     1.684672
 C    -5.986548    -3.622413     2.284128
 H    -5.844301    -4.702247     2.135263
 H    -6.950335    -3.349534     1.821803
 H    -6.082321    -3.436825     3.364670
 C     2.581945    -2.111419    -1.382852
 C     3.185147    -2.756944    -0.306854
 H     2.727274    -2.702306     0.681146
 C     3.152684    -2.173192    -2.653231
 H     2.656665    -1.670689    -3.485387
 C     4.378104    -3.447269    -0.508590
 H     4.851932    -3.943678     0.342682
 C     4.347599    -2.862331    -2.834530
 H     4.795770    -2.897096    -3.831354
 C     4.985764    -3.509170    -1.767695
 C     6.261025    -4.272535    -1.979994
 H     6.829139    -4.376499    -1.044447
 H     6.908283    -3.779331    -2.720207
 H     6.055882    -5.289558    -2.354222
 C     3.725948     1.142873    -0.754493
 C     4.858962     0.343824    -0.624348
 H     4.916128    -0.601809    -1.164803
 C     3.635506     2.353486    -0.069639
 H     2.731376     2.956267    -0.166914
 C     5.892269     0.758137     0.212318
 H     6.773597     0.119860     0.319579
 C     4.677901     2.752002     0.761756
 H     4.593834     3.697156     1.304968
 C     5.823732     1.962443     0.923056
 C     6.953673     2.409985     1.804466
 H     7.511859     1.553877     2.210306
 H     6.591458     3.013635     2.649536
 H     7.671509     3.031843     1.243585
 C     1.556698    -0.380654     1.496745
 C     2.730344    -0.189029     2.219669
 H     3.408318     0.618864     1.944074
 C     0.679159    -1.409938     1.833703
 H    -0.232633    -1.537712     1.251169
 C     3.027095    -1.047103     3.276672
 H     3.955793    -0.897686     3.834350
 C     0.993565    -2.257902     2.890601
 H     0.303115    -3.067850     3.141928
 C     2.171893    -2.096294     3.631992
 C     2.487774    -3.004182     4.785360
 H     3.554734    -2.966649     5.047609
 H     2.228759    -4.049202     4.558388
 H     1.917057    -2.717563     5.684529
