  98
scf done:    -4032.435278
 C    -0.199318    -3.604991    -0.605707
 H     0.381105    -4.420782    -0.158631
 H    -1.270409    -3.837587    -0.585189
 C     0.325504    -3.103329    -1.906675
 H     1.238728    -3.597909    -2.266808
 H    -0.423662    -3.068701    -2.711110
 H     0.650556    -1.975366    -1.858043
Co     0.349735    -1.791952    -0.141937
 O    -2.052946     0.162266    -1.221871
 C    -3.030388    -2.100897    -0.143586
 C    -2.017890    -0.038560     1.522740
 O     2.231425     0.427666     1.249854
 C     3.088268    -0.314530    -1.261711
 C     0.990930     1.556289    -0.829282
 P     1.595818    -0.057570    -0.238079
 P    -1.614423    -0.949786    -0.009822
 C     1.037955    -2.403498     1.296069
 O     1.396770    -2.817768     2.316231
 C    -2.974596     1.159796    -1.102774
 C    -4.241932     1.025986    -1.669089
 H    -4.507600     0.096834    -2.174376
 C    -2.638122     2.347229    -0.446092
 H    -1.650312     2.441219     0.005525
 C    -5.158365     2.073523    -1.578000
 H    -6.149054     1.954154    -2.025873
 C    -3.561462     3.381433    -0.362554
 H    -3.281915     4.299655     0.162561
 C    -4.840252     3.268024    -0.925547
 C    -5.822786     4.400397    -0.838541
 H    -6.823278     4.092308    -1.173909
 H    -5.510329     5.251656    -1.466034
 H    -5.912661     4.776909     0.192382
 C    -3.549166    -2.415471    -1.403561
 H    -3.180498    -1.880347    -2.282339
 C    -3.486078    -2.824372     0.964980
 H    -3.075113    -2.615116     1.956079
 C    -4.521148    -3.403011    -1.546036
 H    -4.916034    -3.630144    -2.540497
 C    -4.455340    -3.810761     0.816055
 H    -4.799594    -4.361104     1.696466
 C    -4.996768    -4.114889    -0.439852
 C    -6.063769    -5.159872    -0.585244
 H    -5.862239    -6.032345     0.054154
 H    -7.048702    -4.761675    -0.288940
 H    -6.148534    -5.508735    -1.624246
 C    -3.334823     0.304116     1.865533
 H    -4.165032    -0.021828     1.235130
 C    -0.977152     0.397940     2.347472
 H     0.055219     0.134781     2.109802
 C    -3.593836     1.070532     2.994373
 H    -4.626816     1.334942     3.237497
 C    -1.244064     1.169371     3.476136
 H    -0.413003     1.502325     4.103930
 C    -2.553218     1.520298     3.819055
 C    -2.845737     2.331573     5.046535
 H    -1.945465     2.840649     5.418431
 H    -3.616716     3.092027     4.850731
 H    -3.223565     1.689859     5.859885
 C     3.562489     0.407537     1.570660
 C     4.415111     1.423598     1.140022
 H     4.019310     2.232025     0.523030
 C     4.057390    -0.626726     2.364174
 H     3.376738    -1.412515     2.695884
 C     5.760361     1.393510     1.496440
 H     6.420695     2.194056     1.151272
 C     5.404279    -0.639377     2.714939
 H     5.782375    -1.453712     3.339575
 C     6.282845     0.362021     2.284358
 C     7.742639     0.313527     2.632621
 H     8.301526    -0.308013     1.912634
 H     7.905556    -0.120020     3.630388
 H     8.194858     1.315826     2.618688
 C     3.697350    -1.575565    -1.213903
 H     3.237839    -2.362130    -0.609172
 C     3.670965     0.686094    -2.045759
 H     3.210703     1.675379    -2.097306
 C     4.869937    -1.819749    -1.917918
 H     5.338676    -2.805916    -1.856744
 C     4.837960     0.429255    -2.759509
 H     5.281133     1.222724    -3.367651
 C     5.460512    -0.822695    -2.705472
 C     6.711650    -1.103125    -3.483851
 H     7.192927    -0.175634    -3.824304
 H     7.439169    -1.667697    -2.881529
 H     6.490603    -1.710492    -4.377239
 C     1.092072     2.723551    -0.069573
 H     1.553075     2.680966     0.918961
 C     0.375316     1.615068    -2.085848
 H     0.257610     0.703764    -2.677315
 C     0.595366     3.929376    -0.565520
 H     0.674409     4.833549     0.044564
 C    -0.109061     2.820440    -2.574912
 H    -0.596818     2.846477    -3.552909
 C    -0.015742     3.998806    -1.820533
 C    -0.621281     5.274186    -2.323721
 H    -0.233539     6.149755    -1.784057
 H    -0.431451     5.417033    -3.397980
 H    -1.715870     5.252274    -2.186617
