  84
scf done:    -6854.347438
 C    -0.950932    -3.360288    -1.915180
 H    -2.035264    -3.213029    -1.843553
 H    -0.671490    -3.732112    -2.906465
 C    -0.317030    -4.043325    -0.763419
 H    -1.022782    -4.360809     0.016804
 H     0.374681    -4.855852    -1.019323
 H     0.367520    -3.311868    -0.127042
Co     0.220545    -1.988501    -1.167549
 O     2.072965    -1.119333     1.417202
 O     3.251595    -2.145870    -0.496513
 O     2.353066     0.279089    -0.707291
 O    -2.296134    -0.383942    -1.885303
 O    -2.557807    -1.770826     0.307776
 O    -1.538055     0.473990     0.373708
 P    -1.456341    -0.904080    -0.558775
 P     1.922258    -1.234687    -0.234543
 C     0.807596    -1.617522    -2.749056
 O     1.127773    -1.306211    -3.809447
 C     1.071262    -0.562900     2.173685
 C     0.097613    -1.389373     2.732444
 H     0.132855    -2.463147     2.542709
 C     1.051215     0.811856     2.398169
 H     1.807397     1.450152     1.939911
 C    -0.910736    -0.837522     3.514829
 H    -1.688296    -1.468668     3.947221
 C     0.047819     1.367204     3.184184
 H     0.012499     2.443053     3.357343
 C    -0.933534     0.540690     3.725170
Cl    -2.234827     1.248751     4.629987
 C     4.538192    -2.007220    -0.021942
 C     4.836742    -2.166070     1.329501
 H     4.039829    -2.400651     2.033988
 C     5.545867    -1.736034    -0.945537
 H     5.285943    -1.634872    -1.999930
 C     6.146115    -1.984078     1.766663
 H     6.396231    -2.087016     2.823735
 C     6.852081    -1.550082    -0.510509
 H     7.644295    -1.298320    -1.216860
 C     7.143668    -1.659131     0.849365
Cl     8.760655    -1.381695     1.402914
 C     3.607474     0.837230    -0.745661
 C     4.121074     1.179812    -1.994035
 H     3.513987     0.995105    -2.882525
 C     4.347260     1.062408     0.414794
 H     3.939417     0.781403     1.385679
 C     5.403039     1.711720    -2.091450
 H     5.826807     1.970908    -3.062855
 C     5.633198     1.582552     0.318814
 H     6.240867     1.728633     1.212786
 C     6.159677     1.893565    -0.934529
Cl     7.779899     2.489547    -1.055751
 C    -3.634909    -0.114898    -2.001317
 C    -4.251436     0.914910    -1.290214
 H    -3.663594     1.555735    -0.633913
 C    -4.376711    -0.910937    -2.872995
 H    -3.863613    -1.690849    -3.438733
 C    -5.626317     1.095993    -1.394889
 H    -6.128096     1.871814    -0.815093
 C    -5.749649    -0.722274    -2.991298
 H    -6.344415    -1.349185    -3.657451
 C    -6.372035     0.266314    -2.230919
Cl    -8.091854     0.454739    -2.311293
 C    -3.802788    -1.411624     0.772658
 C    -4.920421    -2.043409     0.229848
 H    -4.783337    -2.790180    -0.553283
 C    -3.951415    -0.467946     1.786918
 H    -3.071015     0.002396     2.216403
 C    -6.194911    -1.685594     0.653443
 H    -7.079028    -2.143427     0.207738
 C    -5.225346    -0.114101     2.220556
 H    -5.349082     0.631149     3.007777
 C    -6.342650    -0.709700     1.639222
Cl    -7.930475    -0.230857     2.138626
 C    -1.124145     1.721677     0.017068
 C    -1.616487     2.784722     0.778294
 H    -2.302802     2.575498     1.601192
 C    -0.246005     1.964137    -1.038994
 H     0.146213     1.137071    -1.630140
 C    -1.216559     4.086679     0.498998
 H    -1.593641     4.922554     1.090350
 C     0.157111     3.267084    -1.316735
 H     0.853497     3.463481    -2.133310
 C    -0.325583     4.323884    -0.547974
Cl     0.181264     5.944011    -0.894390
