  84
scf done:    -4121.678991
 C    -0.939493    -2.714878    -2.084024
 H    -0.717339    -3.787196    -2.020698
 H    -2.021286    -2.575231    -2.226907
 C    -0.075727    -1.955444    -3.037867
 H     0.688643    -2.556631    -3.549424
 H    -0.625048    -1.358969    -3.782051
 H     0.563757    -1.138710    -2.497702
Co     0.032835    -1.537900    -0.874613
 C    -2.735884     0.201467    -1.904393
 C    -2.984866    -1.267622     0.581158
 C    -1.566494     1.162807     0.586252
 C     1.930169    -0.309458     1.690099
 C     3.248645    -0.639529    -0.891632
 C     1.524311     1.562362    -0.548967
 P     1.613421    -0.230439    -0.161230
 P    -1.730725    -0.366877    -0.419616
 C     0.490912    -2.818359     0.159747
 O     0.718712    -3.651377     0.935007
 H    -2.604155    -0.609440    -2.635679
 H    -2.205638     1.074544    -2.313814
 C    -4.193094     0.466540    -1.698149
 C    -4.684551     1.741835    -1.393010
 H    -4.000401     2.591405    -1.349821
 C    -5.103985    -0.597118    -1.756799
 H    -4.737195    -1.601411    -1.985860
 C    -6.039690     1.943294    -1.136209
 H    -6.400927     2.946843    -0.898376
 C    -6.457617    -0.399096    -1.504026
 H    -7.146427    -1.245911    -1.549401
 C    -6.931214     0.873182    -1.185411
 H    -7.992918     1.031175    -0.982069
 C    -4.031517    -0.592402     1.227768
 H    -4.099997     0.495598     1.168080
 C    -2.924033    -2.661116     0.676784
 H    -2.100975    -3.189624     0.193951
 C    -4.998058    -1.289054     1.942778
 H    -5.819445    -0.774677     2.444367
 C    -3.889349    -3.374011     1.384579
 H    -3.849974    -4.461459     1.468747
 C    -4.916039    -2.676070     2.006286
 F    -5.841939    -3.348662     2.686461
 C    -1.282432     1.017427     1.952371
 H    -1.260917     0.017703     2.394691
 C    -1.590938     2.455798     0.052442
 H    -1.780132     2.613021    -1.009270
 C    -1.030806     2.121911     2.760801
 H    -0.811987     2.014181     3.824925
 C    -1.350883     3.572872     0.848058
 H    -1.363692     4.581789     0.432498
 C    -1.067675     3.390811     2.194261
 F    -0.815621     4.453696     2.956965
 H     1.372999    -1.198223     2.016582
 H     1.430940     0.559286     2.141421
 C     3.365157    -0.422369     2.103182
 C     4.089805     0.671076     2.587318
 H     3.589052     1.630664     2.740987
 C     4.029143    -1.648429     1.955902
 H     3.471432    -2.516601     1.594774
 C     5.447023     0.555404     2.886296
 H     5.994471     1.422582     3.263622
 C     5.383768    -1.766014     2.247770
 H     5.883974    -2.728229     2.115498
 C     6.101444    -0.660711     2.706344
 H     7.166400    -0.751201     2.932418
 C     4.331252     0.248734    -0.836461
 H     4.200411     1.247212    -0.414955
 C     3.440639    -1.907124    -1.450091
 H     2.591544    -2.593713    -1.498000
 C     5.584677    -0.128495    -1.301918
 H     6.440607     0.546716    -1.254140
 C     4.690032    -2.297683    -1.925425
 H     4.856021    -3.284859    -2.360386
 C     5.748236    -1.403246    -1.834959
 F     6.948541    -1.769289    -2.277190
 C     1.089528     1.903980    -1.837316
 H     0.791631     1.111705    -2.529471
 C     1.876066     2.590551     0.328605
 H     2.208838     2.363630     1.340950
 C     1.014893     3.230518    -2.245638
 H     0.679201     3.505847    -3.247165
 C     1.798884     3.926705    -0.059871
 H     2.055628     4.735977     0.625875
 C     1.368906     4.228971    -1.343838
 F     1.278060     5.502936    -1.717770
