  96
scf done:    -3882.028306
 C    -1.828593     0.043434    -2.864700
 H    -1.546042    -0.420125    -3.817490
 H    -2.899808    -0.087095    -2.671020
 C    -1.309866     1.417661    -2.662843
 H    -0.686515     1.811460    -3.478072
 H    -2.075030     2.156825    -2.380931
 H    -0.613811     1.481855    -1.721567
Co    -0.588288    -0.226671    -1.376573
 C    -1.949560     1.245502     1.633496
 C    -3.806388     0.118276    -0.309001
 C    -2.147296    -1.541571     1.401343
 C     1.463809     0.185153     1.385763
 C     2.267028    -1.807347    -0.649653
 C     2.682150     1.041344    -1.091244
 P     1.437531    -0.181526    -0.460168
 P    -2.074622    -0.064814     0.282399
 C    -0.391879    -1.775746    -2.044251
 O    -0.356249    -2.838071    -2.504052
 H    -1.100510     0.883725     2.234298
 H    -2.827811     1.181944     2.289460
 C    -1.721431     2.679426     1.245074
 C    -2.590851     3.681032     1.699178
 H    -3.447476     3.403082     2.319962
 C    -0.626486     3.072309     0.466245
 H     0.062432     2.313689     0.098827
 C    -2.381653     5.020064     1.375171
 H    -3.076069     5.779719     1.742286
 C    -0.410148     4.408513     0.140324
 H     0.457922     4.678473    -0.466715
 C    -1.290505     5.390617     0.590721
 H    -1.124726     6.440155     0.337002
 C    -4.411061     1.382222    -0.286449
 H    -3.876043     2.232205     0.136943
 C    -4.492514    -0.961424    -0.913717
 C    -3.898221    -2.333168    -1.038419
 H    -3.928333    -2.881565    -0.083791
 H    -2.843312    -2.286814    -1.342928
 H    -4.446338    -2.924513    -1.784760
 C    -5.687492     1.588971    -0.802556
 H    -6.132213     2.586302    -0.766934
 C    -5.778236    -0.731495    -1.418424
 H    -6.312392    -1.567029    -1.879476
 C    -6.382138     0.521419    -1.362565
 H    -7.385778     0.663807    -1.770256
 C    -1.072382    -2.429333     1.271902
 H    -0.339200    -2.227734     0.489157
 C    -3.157391    -1.820970     2.352101
 C    -4.430142    -1.035929     2.504919
 H    -5.163370    -1.337622     1.739478
 H    -4.301856     0.044564     2.382714
 H    -4.879640    -1.221935     3.490449
 C    -0.942100    -3.557197     2.075211
 H    -0.092097    -4.229221     1.935036
 C    -3.003060    -2.958513     3.157670
 H    -3.776291    -3.178034     3.899330
 C    -1.914405    -3.817239     3.035426
 H    -1.837544    -4.694583     3.682385
 H     0.891534    -0.627344     1.858080
 H     0.823906     1.075301     1.442672
 C     2.739800     0.467533     2.113811
 C     3.355157     1.720534     1.982830
 H     2.885272     2.485735     1.360359
 C     3.343003    -0.482671     2.947912
 H     2.864251    -1.452925     3.097716
 C     4.558071     1.996716     2.626080
 H     5.023935     2.977181     2.501364
 C     4.545277    -0.207481     3.595683
 H     4.999356    -0.965317     4.238648
 C     5.164566     1.029719     3.427085
 H     6.109773     1.245275     3.930851
 C     2.333530    -2.695743     0.429790
 H     1.957687    -2.393270     1.406302
 C     2.726606    -2.225506    -1.919341
 C     2.662351    -1.346116    -3.133397
 H     3.512165    -0.645478    -3.169743
 H     1.745272    -0.737124    -3.133367
 H     2.679444    -1.951556    -4.049934
 C     2.868697    -3.972328     0.288515
 H     2.911960    -4.643341     1.149717
 C     3.262433    -3.512442    -2.037848
 H     3.614538    -3.841133    -3.019394
 C     3.343841    -4.381094    -0.953870
 H     3.765657    -5.380352    -1.084430
 C     2.142295     2.167781    -1.726432
 H     1.065332     2.217283    -1.875980
 C     4.089124     0.950733    -0.946266
 C     4.824721    -0.210557    -0.343503
 H     4.947754    -1.024457    -1.075459
 H     4.311820    -0.639817     0.522107
 H     5.825387     0.107475    -0.020365
 C     2.932718     3.214964    -2.188240
 H     2.469407     4.076693    -2.674339
 C     4.866882     2.013994    -1.428463
 H     5.952117     1.950984    -1.311661
 C     4.312652     3.136325    -2.033740
 H     4.959949     3.942209    -2.388062
