  92
scf done:    -3878.083615
 C    -0.806800    -3.157891    -1.000502
 H    -0.814871    -4.117473    -0.468448
 H    -1.759484    -3.005166    -1.524634
 C     0.410899    -2.916586    -1.827963
 H     1.199641    -3.675889    -1.734324
 H     0.209283    -2.726707    -2.893252
 H     0.950477    -1.923989    -1.525542
Co    -0.018222    -1.629012    -0.091543
 C    -1.540943     0.899219    -2.022135
 C    -3.310887    -0.855165    -0.569584
 C    -1.755979     1.032705     0.827387
 C     1.506550     0.567351     2.059206
 C     3.237352    -0.994555     0.326733
 C     1.764852     1.168510    -0.770497
 P     1.574100    -0.226266     0.400646
 P    -1.592706    -0.193857    -0.535185
 C    -0.109725    -2.364607     1.443906
 O    -0.311576    -2.796875     2.504488
 H    -2.402506     1.587818    -2.045672
 H    -0.641722     1.523718    -1.902985
 C    -1.432521     0.111346    -3.319765
 H    -2.294375    -0.571313    -3.417863
 H    -0.541289    -0.534474    -3.257774
 C    -1.339732     1.010046    -4.542586
 H    -2.242734     1.632838    -4.648874
 H    -0.476502     1.690734    -4.468964
 H    -1.229847     0.424593    -5.468363
 C    -4.368233    -0.239828    -1.256789
 H    -4.191711     0.657728    -1.853290
 C    -3.599596    -1.996186     0.183100
 H    -2.786349    -2.501171     0.709522
 C    -5.657330    -0.746641    -1.195686
 H    -6.480849    -0.273451    -1.734060
 C    -4.892982    -2.509677     0.268546
 H    -5.071786    -3.400371     0.871322
 C    -5.933612    -1.886205    -0.427504
 O    -7.214510    -2.306443    -0.422271
 C    -7.548322    -3.437373     0.331464
 H    -7.338857    -3.292249     1.406108
 H    -8.625929    -3.597833     0.199022
 H    -7.008878    -4.336800    -0.014821
 C    -1.947284     0.542313     2.132540
 H    -2.055373    -0.532410     2.296200
 C    -1.609727     2.409856     0.666048
 H    -1.469966     2.837145    -0.327683
 C    -1.966400     1.391233     3.224813
 H    -2.103704     1.009408     4.238138
 C    -1.606760     3.279504     1.762078
 H    -1.473566     4.348386     1.591383
 C    -1.774375     2.771102     3.052301
 O    -1.762098     3.517569     4.175799
 C    -1.556522     4.896363     4.064046
 H    -2.350648     5.385198     3.472034
 H    -1.574254     5.302429     5.083433
 H    -0.578894     5.129843     3.604874
 H     0.605624     1.201475     2.046063
 H     1.263631    -0.256405     2.750267
 C     2.715256     1.344873     2.557213
 H     3.017389     2.098953     1.811166
 H     3.575636     0.663955     2.658680
 C     2.430845     2.026722     3.887967
 H     1.581772     2.725080     3.805743
 H     2.166176     1.289272     4.662243
 H     3.303223     2.593065     4.248404
 C     4.411480    -0.251721     0.117009
 H     4.350824     0.827982    -0.040294
 C     3.349189    -2.375782     0.493997
 H     2.434272    -2.958831     0.633099
 C     5.649968    -0.871323     0.091050
 H     6.567936    -0.304045    -0.074309
 C     4.589817    -3.012897     0.475962
 H     4.635628    -4.093643     0.611934
 C     5.751195    -2.259353     0.275063
 O     6.994806    -2.773644     0.234578
 C     7.161422    -4.152921     0.409828
 H     6.645448    -4.732202    -0.376119
 H     8.238959    -4.350397     0.345981
 H     6.794645    -4.488915     1.395693
 C     2.097607     0.865459    -2.103670
 H     2.354568    -0.162593    -2.374825
 C     1.452224     2.491742    -0.461813
 H     1.185760     2.770066     0.558596
 C     2.095337     1.838981    -3.085740
 H     2.348773     1.604686    -4.121286
 C     1.434922     3.486435    -1.444848
 H     1.172043     4.506305    -1.162708
 C     1.745106     3.161380    -2.767669
 O     1.729974     4.033070    -3.794580
 C     1.356621     5.359376    -3.546925
 H     2.046882     5.855853    -2.842208
 H     1.396375     5.883356    -4.510142
 H     0.329975     5.427360    -3.145290
