  88
scf done:    -3577.429531
 C     0.931426    -3.156336     0.608576
 H     0.945333    -4.051184    -0.025910
 H     1.899339    -3.031673     1.111724
 C    -0.260492    -3.042716     1.498247
 H    -1.033570    -3.808519     1.346526
 H    -0.024541    -2.966260     2.570650
 H    -0.834392    -2.037168     1.328233
Co     0.069578    -1.562710    -0.099939
 C     1.609309     0.782380     2.029484
 C     3.361401    -0.762931     0.333672
 C     1.721712     1.219626    -0.801949
 C    -1.598078     0.778127    -1.973289
 C    -3.215202    -0.978516    -0.325547
 C    -1.746876     1.118390     0.907999
 P    -1.570097    -0.162444    -0.391862
 P     1.626592    -0.143665     0.432796
 C     0.121366    -2.131772    -1.706955
 O     0.292085    -2.445563    -2.813218
 H     2.455674     1.486143     2.099301
 H     0.692367     1.392552     2.011542
 C     1.567579    -0.149958     3.232095
 H     2.455801    -0.805155     3.230085
 H     0.699040    -0.819394     3.119983
 C     1.478185     0.598881     4.551824
 H     2.352862     1.252238     4.701330
 H     0.580127     1.236745     4.579498
 H     1.428615    -0.091871     5.407528
 C     3.647919    -1.794920    -0.568871
 H     2.830368    -2.246033    -1.135805
 C     4.419699    -0.218118     1.067715
 H     4.242479     0.594253     1.775617
 C     4.950009    -2.252784    -0.739933
 H     5.145667    -3.053935    -1.458537
 C     5.719873    -0.691039     0.905161
 H     6.529041    -0.248241     1.493163
 C     6.011069    -1.714982    -0.001848
 C     7.407046    -2.242255    -0.160003
 H     7.545133    -3.171176     0.418431
 H     7.630538    -2.479591    -1.210796
 H     8.155141    -1.519218     0.195330
 C     1.574085     2.572356    -0.486924
 H     1.463193     2.890398     0.550431
 C     1.870990     0.869663    -2.153671
 H     1.975677    -0.181189    -2.432840
 C     1.540854     3.540615    -1.493090
 H     1.409993     4.591846    -1.219671
 C     1.855447     1.837798    -3.147910
 H     1.968750     1.533766    -4.192445
 C     1.672770     3.194456    -2.839315
 C     1.613339     4.226613    -3.926741
 H     2.500616     4.174238    -4.576954
 H     0.732861     4.072021    -4.571752
 H     1.553543     5.244132    -3.515624
 H    -0.715826     1.438175    -1.939556
 H    -1.362546     0.028439    -2.746270
 C    -2.853680     1.553457    -2.343007
 H    -3.151296     2.216369    -1.513313
 H    -3.691697     0.851266    -2.479790
 C    -2.652733     2.378074    -3.606135
 H    -1.844197     3.115579    -3.473907
 H    -2.374519     1.737638    -4.458249
 H    -3.566877     2.925419    -3.882306
 C    -3.303707    -2.334552    -0.652564
 H    -2.385723    -2.873076    -0.904074
 C    -4.388074    -0.295076     0.023078
 H    -4.341198     0.761096     0.299311
 C    -4.535063    -2.986380    -0.649317
 H    -4.582365    -4.046450    -0.914008
 C    -5.612817    -0.953092     0.030541
 H    -6.517107    -0.401793     0.304438
 C    -5.710060    -2.310346    -0.306562
 C    -7.033322    -3.016812    -0.269133
 H    -7.322208    -3.256420     0.767834
 H    -7.834713    -2.392168    -0.691528
 H    -7.002586    -3.961503    -0.830003
 C    -1.479405     2.473196     0.700323
 H    -1.250349     2.843342    -0.299726
 C    -2.027757     0.692915     2.216243
 H    -2.244082    -0.362542     2.405512
 C    -1.470382     3.370016     1.770620
 H    -1.247612     4.424059     1.582117
 C    -2.027224     1.589646     3.275272
 H    -2.248803     1.230092     4.284208
 C    -1.734694     2.947959     3.075025
 C    -1.696041     3.900058     4.233531
 H    -2.622896     3.848776     4.825722
 H    -0.864395     3.657152     4.915268
 H    -1.562212     4.938287     3.899506
