  76
scf done:    -4263.555636
 C     0.512288    -4.309822    -0.694737
 H     1.171735    -5.109480    -0.336989
 H    -0.533641    -4.618341    -0.576609
 C     0.863257    -3.769560    -2.043838
 H     1.731459    -4.246616    -2.519984
 H     0.024824    -3.742084    -2.755322
 H     1.183317    -2.643087    -2.003167
Co     1.043241    -2.485347    -0.265344
 O    -1.207579    -0.174148    -0.537183
 C    -2.448402    -2.619386    -0.354296
 C    -1.180301    -1.374185     1.926032
 O     1.518840     0.419103     0.893918
 C     3.811196    -0.560278    -0.203785
 C     1.677504     0.409421    -1.899115
 P     1.986700    -0.583412    -0.380997
 P    -0.909485    -1.724443     0.143623
 C     2.073942    -3.061146     0.969983
 O     2.695818    -3.449538     1.866573
 C    -2.387308     0.494276    -0.543262
 C    -2.779536     1.281562     0.545497
 H    -2.133623     1.342805     1.422490
 C    -3.196459     0.447440    -1.683305
 H    -2.867012    -0.145508    -2.538527
 C    -3.982888     1.980262     0.509528
 H    -4.295723     2.591434     1.357684
 C    -4.400447     1.142365    -1.723809
 H    -5.038204     1.102662    -2.608366
 C    -4.794366     1.900672    -0.621345
Cl    -6.296260     2.763484    -0.664634
 H    -2.557850    -2.421127    -1.435436
 H    -2.199021    -3.690734    -0.284185
 C    -3.761340    -2.355637     0.376792
 H    -3.980837    -1.277735     0.405252
 H    -3.663086    -2.673152     1.427722
 C    -4.928751    -3.086964    -0.267774
 H    -5.084968    -2.745828    -1.303827
 H    -4.754638    -4.174594    -0.300003
 H    -5.865218    -2.913208     0.283542
 H    -0.412235    -0.626860     2.184347
 H    -2.169200    -0.911931     2.077111
 C    -1.028647    -2.614244     2.800501
 H    -0.034444    -3.054446     2.629932
 H    -1.754919    -3.385794     2.489802
 C    -1.215154    -2.306809     4.278042
 H    -0.478373    -1.563563     4.621804
 H    -2.217914    -1.897817     4.482397
 H    -1.089974    -3.210025     4.894187
 C     1.665758     1.771295     0.928678
 C     0.657366     2.591302     0.415612
 H    -0.226168     2.126103    -0.021161
 C     2.798023     2.343510     1.513027
 H     3.565703     1.692886     1.935494
 C     0.792533     3.974915     0.456625
 H     0.011816     4.621526     0.052771
 C     2.937511     3.728001     1.556615
 H     3.819580     4.185146     2.007917
 C     1.937557     4.538379     1.019901
Cl     2.112970     6.261845     1.065883
 H     4.190421     0.473935    -0.242978
 H     4.011269    -0.949941     0.808620
 C     4.487327    -1.442010    -1.247960
 H     4.319109    -1.021438    -2.254989
 H     3.988954    -2.426798    -1.243826
 C     5.978781    -1.608638    -1.006374
 H     6.499338    -0.637718    -1.020694
 H     6.168898    -2.073556    -0.026237
 H     6.440736    -2.247184    -1.774435
 H     1.684431    -0.334973    -2.714823
 H     0.624498     0.723582    -1.813299
 C     2.595252     1.576172    -2.249630
 H     3.606033     1.196538    -2.473428
 H     2.708804     2.250630    -1.387600
 C     2.072591     2.368358    -3.438076
 H     1.956794     1.729738    -4.328648
 H     1.086935     2.806738    -3.214607
 H     2.752231     3.192592    -3.701902
