 102
scf done:    -3809.274757
 C     0.313654     0.500684     3.042969
 H    -0.185778     0.002782     3.882645
 H     1.400870     0.366766     3.127030
 C    -0.123338     1.908059     2.797310
 H    -0.936099     2.261323     3.446176
 H     0.690250     2.649785     2.799032
 H    -0.550316     2.048963     1.717305
Co    -0.525300     0.349458     1.285076
 C     2.512980     1.446337     0.302674
 O     2.358970    -1.123523     1.009684
 O     1.183546    -0.505217    -1.210218
 C    -1.848054    -0.079267    -1.969664
 O    -2.922055     1.727768    -0.422348
 O    -0.504417     2.136243    -1.215151
 P    -1.460431     0.979155    -0.515085
 P     1.345038     0.001260     0.352562
 C    -1.640810    -0.839185     1.852690
 O    -2.275915    -1.717897     2.254284
 H     2.066496     2.107178    -0.457735
 H     2.303157     1.929654     1.270955
 C     3.996839     1.302317     0.112477
 C     4.574454     1.612021    -1.124970
 H     3.933814     1.977178    -1.931724
 C     4.845383     0.920306     1.175419
 C     4.326072     0.701367     2.565703
 H     3.626723    -0.144432     2.596168
 H     3.783003     1.586798     2.935683
 H     5.149323     0.502574     3.265095
 C     5.940284     1.481779    -1.355889
 H     6.354532     1.727251    -2.336577
 C     6.215974     0.786954     0.926313
 H     6.868751     0.481851     1.748909
 C     6.767440     1.046416    -0.325243
 H     7.841814     0.930108    -0.485912
 C     1.837976    -2.212192     1.757683
 H     2.562708    -2.410108     2.565131
 H     0.886034    -1.906825     2.223871
 C     1.628809    -3.446948     0.909970
 H     0.997244    -3.171144     0.051393
 H     2.595560    -3.777861     0.494125
 C     0.966783    -4.578836     1.680900
 H    -0.003690    -4.224929     2.071712
 H     1.575773    -4.828683     2.568045
 C     0.757430    -5.825803     0.836974
 H     0.122685    -5.610414    -0.037590
 H     1.715125    -6.216908     0.457390
 H     0.272167    -6.629528     1.410996
 C     2.103913    -0.360590    -2.277282
 H     1.512944    -0.524387    -3.194458
 H     2.461194     0.678369    -2.313081
 C     3.261935    -1.335654    -2.220612
 H     4.018874    -1.011314    -2.956307
 H     3.745863    -1.256193    -1.233387
 C     2.850387    -2.774716    -2.495416
 H     2.463376    -2.850014    -3.527414
 H     2.005923    -3.033204    -1.837947
 C     3.980624    -3.769420    -2.294402
 H     4.831584    -3.551480    -2.959981
 H     4.359141    -3.733204    -1.260184
 H     3.655431    -4.801635    -2.495268
 H    -2.029886     0.609803    -2.808272
 H    -0.918549    -0.627066    -2.173958
 C    -3.032807    -0.975481    -1.765674
 C    -4.306514    -0.516157    -2.121282
 H    -4.403251     0.479956    -2.559715
 C    -2.894864    -2.252071    -1.186662
 C    -1.544159    -2.803069    -0.840312
 H    -1.631691    -3.680027    -0.185008
 H    -0.922471    -2.055304    -0.329153
 H    -0.997255    -3.109843    -1.748570
 C    -5.440725    -1.292488    -1.908766
 H    -6.424861    -0.914334    -2.195256
 C    -4.047876    -3.012863    -0.961834
 H    -3.944866    -3.996771    -0.496600
 C    -5.310884    -2.546094    -1.314770
 H    -6.193417    -3.161691    -1.125289
 C    -3.448555     2.250543     0.788863
 H    -2.806449     1.935910     1.630326
 H    -3.419599     3.352120     0.727211
 C    -4.864624     1.760203     0.998832
 H    -5.322826     2.373243     1.795477
 H    -5.442800     1.964832     0.080482
 C    -4.957677     0.284743     1.359755
 H    -4.422887     0.109575     2.308204
 H    -4.423640    -0.308710     0.601857
 C    -6.387367    -0.213082     1.474881
 H    -6.948528     0.335621     2.249458
 H    -6.927645    -0.089155     0.522615
 H    -6.416352    -1.282455     1.731851
 C    -0.970474     3.105267    -2.137781
 H    -0.211333     3.173037    -2.935733
 H    -1.919472     2.787677    -2.601503
 C    -1.150408     4.450117    -1.460429
 H    -1.459280     5.184058    -2.225715
 H    -1.990172     4.375572    -0.748560
 C     0.094652     4.939781    -0.734797
 H     0.930600     5.012870    -1.453580
 H     0.395983     4.173802    -0.001368
 C    -0.105579     6.274704    -0.037051
 H    -0.380558     7.066995    -0.751943
 H    -0.912487     6.214890     0.711268
 H     0.806961     6.600393     0.484696
