 102
scf done:    -3960.622166
 C    -1.119576    -3.139493    -1.383314
 H    -0.887870    -4.172200    -1.095369
 H    -2.208621    -3.016674    -1.462236
 C    -0.337978    -2.626158    -2.548904
 H     0.414881    -3.321096    -2.945473
 H    -0.948822    -2.241263    -3.379968
 H     0.284639    -1.672908    -2.276169
Co    -0.052330    -1.738816    -0.554511
 C    -2.827025    -0.181352    -1.839192
 C    -2.986721    -1.015585     0.944093
 C    -1.519501     1.294933     0.307521
 C     1.969486     0.117039     1.448965
 C     3.241024    -1.225482    -0.841841
 C     1.770386     1.099126    -1.327390
 P     1.667288    -0.429866    -0.314658
 P    -1.762520    -0.423354    -0.301466
 C     0.418743    -2.752829     0.732647
 O     0.648662    -3.405182     1.665330
 H    -2.249249     0.510657    -2.470913
 H    -2.782425    -1.156839    -2.343096
 C    -4.245914     0.273608    -1.682614
 C    -4.552680     1.640608    -1.670712
 H    -3.752862     2.366429    -1.821225
 C    -5.294683    -0.658097    -1.513177
 C    -5.050207    -2.137300    -1.554406
 H    -4.394232    -2.459862    -0.731412
 H    -4.567594    -2.445491    -2.495922
 H    -5.993907    -2.692191    -1.466200
 C    -5.849348     2.098850    -1.457028
 H    -6.052896     3.172210    -1.446412
 C    -6.593140    -0.181041    -1.303663
 H    -7.400910    -0.905682    -1.168674
 C    -6.878098     1.181337    -1.263231
 H    -7.902307     1.522512    -1.094018
 C    -2.878291    -2.309190     1.465628
 H    -2.041453    -2.938544     1.162506
 C    -4.050049    -0.202929     1.353682
 H    -4.132853     0.815964     0.967916
 C    -3.833328    -2.778270     2.363884
 H    -3.742378    -3.787252     2.773407
 C    -5.023743    -0.665318     2.244514
 C    -6.176857     0.218667     2.620322
 H    -5.827725     1.196090     2.988009
 H    -6.812857     0.415515     1.742089
 H    -6.801694    -0.237730     3.400934
 C    -4.900979    -1.966681     2.742895
 H    -5.650211    -2.345295     3.444114
 C    -1.466230     2.413949    -0.529008
 H    -1.585179     2.309229    -1.608160
 C    -1.281146     1.474074     1.677328
 H    -1.313283     0.603618     2.339881
 C    -1.247427     3.680503     0.006955
 H    -1.236909     4.550379    -0.653733
 C    -1.014908     2.732160     2.225693
 C    -0.713468     2.874537     3.689529
 H    -1.349158     2.213178     4.296430
 H     0.333902     2.601061     3.902665
 H    -0.861362     3.907428     4.035214
 C    -1.022688     3.842193     1.371202
 H    -0.848568     4.840677     1.781944
 H     1.280904     0.960991     1.604221
 H     1.567005    -0.712341     2.046180
 C     3.369433     0.453144     1.865457
 C     3.832513     1.773474     1.812874
 H     3.148496     2.566788     1.507737
 C     4.250069    -0.562784     2.299468
 C     3.799092    -1.986361     2.433528
 H     3.468156    -2.402701     1.470960
 H     2.947340    -2.083124     3.125276
 H     4.612512    -2.620903     2.810281
 C     5.147407     2.100030     2.133337
 H     5.480972     3.138860     2.076938
 C     5.567760    -0.217478     2.618137
 H     6.249925    -1.006042     2.947381
 C     6.025579     1.094883     2.528526
 H     7.061843     1.331887     2.781718
 C     3.244020    -2.583167    -1.178895
 H     2.302893    -3.137068    -1.137572
 C     4.435573    -0.500797    -0.898007
 H     4.434055     0.565977    -0.660666
 C     4.435883    -3.203369    -1.544039
 H     4.439036    -4.263267    -1.809908
 C     5.643390    -1.115872    -1.241055
 C     6.918491    -0.324787    -1.229030
 H     6.821922     0.597267    -1.822847
 H     7.171316    -0.019716    -0.200577
 H     7.761162    -0.904825    -1.630725
 C     5.625477    -2.477462    -1.563920
 H     6.559944    -2.974215    -1.840098
 C     1.912715     0.929135    -2.711860
 H     1.982417    -0.077719    -3.133076
 C     1.689489     2.393952    -0.815360
 H     1.524860     2.551886     0.250905
 C     1.984169     2.036145    -3.549739
 H     2.091948     1.895107    -4.628001
 C     1.796160     3.520131    -1.641057
 C     1.792396     4.902603    -1.056145
 H     1.146005     5.584127    -1.630112
 H     1.443533     4.896438    -0.014398
 H     2.807028     5.334059    -1.067717
 C     1.936130     3.324115    -3.017554
 H     2.012318     4.190062    -3.681269
