 106
scf done:    -4261.416004
 C    -0.842421    -2.898834    -1.589532
 H    -0.845119    -3.954613    -1.297005
 H    -1.844550    -2.608960    -1.927239
 C     0.274784    -2.481664    -2.485262
 H     0.981071    -3.280074    -2.750154
 H    -0.037234    -1.944811    -3.393366
 H     0.992616    -1.704512    -1.981679
Co     0.158617    -1.676469    -0.440984
 C    -2.186643     0.400992    -1.860742
 O    -2.918441    -1.010541     0.250731
 O    -1.269923     0.895780     0.723629
 C     1.558618     0.147882     2.052891
 O     3.206188    -0.855321     0.189366
 O     1.685914     1.148551    -0.445621
 P     1.621109    -0.349124     0.288934
 P    -1.486075    -0.384798    -0.334998
 C     0.425756    -2.919340     0.731375
 O     0.508665    -3.726457     1.551813
 H    -1.522381     1.263010    -2.025273
 H    -1.942357    -0.325077    -2.652267
 C    -3.627126     0.818955    -1.929498
 C    -3.982546     2.144844    -1.659106
 H    -3.201853     2.869877    -1.423681
 C    -4.634001    -0.097671    -2.300050
 C    -4.301436    -1.502857    -2.702461
 H    -3.779383    -2.034588    -1.895177
 H    -3.645263    -1.524184    -3.588575
 H    -5.209816    -2.068503    -2.950272
 C    -5.310944     2.559950    -1.684200
 H    -5.556495     3.599690    -1.456362
 C    -5.963852     0.335160    -2.319294
 H    -6.744069    -0.378284    -2.598907
 C    -6.311170     1.646099    -2.001511
 H    -7.359308     1.954150    -2.020226
 C    -3.057937    -1.690429     1.429526
 C    -2.080917    -1.684149     2.426222
 H    -1.155590    -1.133748     2.268824
 C    -4.276909    -2.363105     1.622278
 C    -5.338182    -2.343591     0.565744
 H    -5.469226    -1.336098     0.144205
 H    -5.075259    -3.006628    -0.273833
 H    -6.299538    -2.685860     0.972687
 C    -2.289278    -2.380772     3.613593
 H    -1.509699    -2.379464     4.378569
 C    -4.462649    -3.041659     2.829365
 H    -5.409367    -3.564778     2.990593
 C    -3.482404    -3.065611     3.819681
 H    -3.655640    -3.610148     4.750296
 C    -1.708008     2.192968     0.667334
 C    -0.913081     3.124840    -0.001701
 H     0.009599     2.774201    -0.465811
 C    -2.885658     2.573274     1.329519
 C    -3.749472     1.566698     2.019023
 H    -4.288266     0.954011     1.278629
 H    -3.157004     0.873328     2.632064
 H    -4.491948     2.060203     2.660129
 C    -1.297497     4.462974    -0.048462
 H    -0.675080     5.188177    -0.577626
 C    -3.238492     3.925843     1.276431
 H    -4.154149     4.243437     1.782495
 C    -2.467846     4.864679     0.592406
 H    -2.778582     5.911554     0.568397
 H     0.503062     0.428951     2.184883
 H     1.725880    -0.781489     2.618485
 C     2.453548     1.275496     2.467893
 C     2.001672     2.586741     2.275366
 H     0.999981     2.747740     1.871006
 C     3.739368     1.056699     3.002559
 C     4.258530    -0.327805     3.254147
 H     4.302559    -0.904057     2.320113
 H     3.608852    -0.883175     3.950547
 H     5.265616    -0.297733     3.691762
 C     2.808141     3.680310     2.572257
 H     2.435632     4.693043     2.403127
 C     4.535592     2.169488     3.299277
 H     5.534314     2.004803     3.712964
 C     4.087273     3.470076     3.080900
 H     4.735678     4.317375     3.316313
 C     3.595570    -1.758867    -0.775929
 C     3.658138    -1.367778    -2.112281
 H     3.420389    -0.337003    -2.378337
 C     3.938488    -3.060058    -0.378065
 C     3.932595    -3.461000     1.064630
 H     4.788290    -3.015982     1.597629
 H     3.020970    -3.131984     1.579606
 H     4.003462    -4.552079     1.167020
 C     4.040281    -2.284511    -3.088618
 H     4.088036    -1.971201    -4.133937
 C     4.314024    -3.960290    -1.380854
 H     4.574242    -4.982201    -1.092134
 C     4.360994    -3.589242    -2.723360
 H     4.656369    -4.318789    -3.480697
 C     2.699387     1.725413    -1.162590
 C     3.919827     2.044527    -0.569566
 H     4.081237     1.814502     0.483233
 C     2.448799     1.999683    -2.517718
 C     1.136898     1.623321    -3.136425
 H     1.212033     1.584051    -4.231714
 H     0.791611     0.646845    -2.766940
 H     0.351292     2.354962    -2.883858
 C     4.914195     2.652022    -1.331325
 H     5.870064     2.899734    -0.864455
 C     3.464917     2.614455    -3.255832
 H     3.288818     2.831272    -4.313091
 C     4.689313     2.939926    -2.675767
 H     5.468692     3.414022    -3.276378
