  52
scf done:    -2954.665958
 C     1.523571     2.786015    -0.133715
 H     1.266460     3.753939     0.312083
 H     2.555706     2.502038     0.095690
 C     1.104157     2.616419    -1.554152
 H     0.591661     3.484129    -1.993217
 H     1.903940     2.276042    -2.227680
 H     0.307032     1.760910    -1.691598
Co     0.201186     1.362187     0.006603
 C     1.782664    -1.666349    -0.569180
 O     3.141271     0.316524     0.651080
 O     1.218112    -0.842791     1.965716
 C    -1.957739    -1.097097     0.886752
 O    -2.895151     0.767178    -0.722671
 O    -1.188349    -0.851852    -1.750090
 P    -1.422536     0.088066    -0.404553
 P     1.569317    -0.170681     0.488421
 C    -0.554889     2.180379     1.312323
 O    -0.976262     2.684673     2.262718
 H     2.515739    -2.377723    -0.153463
 H     0.805768    -2.178437    -0.583995
 C     2.161841    -1.260533    -1.988036
 H     3.141922    -0.754247    -1.968891
 H     1.432924    -0.510668    -2.336299
 C     2.191335    -2.432363    -2.954586
 H     2.913451    -3.202318    -2.637693
 H     1.201261    -2.911867    -3.017992
 H     2.471369    -2.110745    -3.969401
 C     4.148639    -0.436929     1.268753
 H     3.940994    -0.581828     2.342164
 H     4.288523    -1.426230     0.795803
 H     5.090594     0.122038     1.171949
 C     1.429319    -2.173540     2.360320
 H     0.801611    -2.878346     1.787825
 H     2.480774    -2.491805     2.262981
 H     1.146234    -2.248117     3.420401
 H    -1.348889    -2.004963     0.725180
 H    -1.582858    -0.663164     1.828308
 C    -3.437091    -1.439172     1.011517
 H    -3.808919    -1.885196     0.075598
 H    -4.004585    -0.504858     1.137378
 C    -3.706247    -2.382119     2.173890
 H    -3.170531    -3.337616     2.050813
 H    -3.376338    -1.941069     3.128049
 H    -4.778854    -2.611372     2.265542
 C    -2.947092     1.967471    -1.460143
 H    -2.153597     2.660470    -1.130810
 H    -2.829151     1.778889    -2.541120
 H    -3.929277     2.427519    -1.283991
 C    -2.173710    -1.725138    -2.248108
 H    -2.263181    -2.633084    -1.625845
 H    -3.159534    -1.235184    -2.301979
 H    -1.869510    -2.029087    -3.259928
