  96
scf done:    -3282.427300
 C    -0.828790     2.877240     0.656764
 H    -0.761104     3.778082     0.034411
 H    -1.800177     2.851688     1.165864
 C     0.345017     2.654912     1.551730
 H     1.141911     3.408462     1.472861
 H     0.090992     2.504093     2.612007
 H     0.903595     1.658152     1.297587
Co    -0.081046     1.239258    -0.085925
 C    -1.246425    -1.410858     1.934996
 C    -3.158698     0.620389     1.349635
 C    -2.322950    -1.166858    -0.718079
 C     1.130700    -1.516921    -1.767192
 C     2.942640     0.709781    -1.410695
 C     2.319733    -0.964108     0.858461
 P     1.521531    -0.139428    -0.592603
 P    -1.617959    -0.128955     0.643494
 C    -0.213372     1.821951    -1.680855
 O    -0.393791     2.156860    -2.778548
 H    -2.155703    -1.977534     2.198336
 H    -0.554068    -2.133702     1.466243
 C    -0.609371    -0.814355     3.183587
 H    -1.344142    -0.168741     3.694913
 H     0.209788    -0.142489     2.875892
 C    -0.085029    -1.860644     4.154065
 H    -0.886521    -2.539675     4.486134
 H     0.696320    -2.480863     3.684189
 H     0.354080    -1.397918     5.051208
 H    -2.836874     1.296451     2.160484
 H    -3.767136    -0.167760     1.822252
 C    -3.956094     1.398682     0.310305
 H    -3.253462     1.970794    -0.318908
 H    -4.465939     0.693144    -0.370360
 C    -4.999329     2.356840     0.887806
 H    -4.463839     3.062523     1.551471
 C    -5.648182     3.166994    -0.227939
 H    -4.895092     3.717193    -0.812911
 H    -6.369129     3.897964     0.170268
 H    -6.193240     2.507506    -0.924236
 C    -6.050392     1.632954     1.721868
 H    -6.796793     2.336808     2.122024
 H    -5.605685     1.101402     2.576752
 H    -6.589523     0.889896     1.109372
 H    -1.476180    -1.714263    -1.159037
 H    -2.626032    -0.437682    -1.485849
 C    -3.450529    -2.131775    -0.384088
 H    -3.082979    -2.891473     0.326125
 H    -4.269196    -1.603413     0.136654
 C    -4.043082    -2.853453    -1.599441
 H    -3.204802    -3.326371    -2.145963
 C    -4.992977    -3.958044    -1.150593
 H    -4.487080    -4.685058    -0.495980
 H    -5.406749    -4.508638    -2.009730
 H    -5.842148    -3.537090    -0.586336
 C    -4.744256    -1.893239    -2.554307
 H    -5.156810    -2.428121    -3.423696
 H    -4.066701    -1.116034    -2.937605
 H    -5.582874    -1.385231    -2.048319
 H     0.684360    -2.318715    -1.152316
 H     0.311712    -1.130271    -2.395431
 C     2.227389    -2.083680    -2.662333
 H     3.087463    -2.414740    -2.059534
 H     2.609395    -1.286355    -3.319847
 C     1.725779    -3.240952    -3.513391
 H     1.376584    -4.076791    -2.885785
 H     0.880057    -2.930625    -4.147585
 H     2.515471    -3.627838    -4.175232
 H     2.556179     1.064928    -2.381543
 H     3.747746    -0.010504    -1.621915
 C     3.443760     1.891519    -0.595203
 H     2.575301     2.532783    -0.370235
 H     3.829838     1.541643     0.381070
 C     4.528825     2.730916    -1.271593
 H     4.130705     3.054225    -2.251743
 C     4.815213     3.980439    -0.447020
 H     3.902417     4.577017    -0.294496
 H     5.562663     4.624637    -0.935554
 H     5.207957     3.711214     0.548091
 C     5.806588     1.936617    -1.519527
 H     6.579068     2.561961    -1.993428
 H     5.636286     1.070518    -2.176773
 H     6.221584     1.559648    -0.568838
 H     1.515105    -1.527162     1.357571
 H     2.555840    -0.133684     1.543928
 C     3.534658    -1.854333     0.652523
 H     3.247603    -2.727213     0.043330
 H     4.310361    -1.319606     0.075290
 C     4.165901    -2.362272     1.953810
 H     3.365553    -2.851208     2.541737
 C     5.232471    -3.408418     1.650982
 H     4.818888    -4.252842     1.077692
 H     5.674487    -3.812614     2.574737
 H     6.050949    -2.970684     1.055207
 C     4.742699    -1.230134     2.796893
 H     5.201965    -1.617595     3.719219
 H     3.977047    -0.498829     3.096078
 H     5.524310    -0.687628     2.238172
