 122
scf done:    -4719.026926
 C    -0.563759    -2.613068    -2.060135
 H    -0.165731    -3.635387    -2.104403
 H    -1.654115    -2.622978    -2.192725
 C     0.182603    -1.623602    -2.891779
 H     1.146449    -1.978777    -3.278696
 H    -0.401686    -1.183996    -3.711611
 H     0.430765    -0.650684    -2.292509
Co     0.139185    -1.404453    -0.718588
 C    -1.961189     1.451939    -0.354656
 C    -3.353532    -0.944889    -0.873128
 C    -1.921949    -0.721813     1.710984
 C     2.703442    -0.829098     1.510771
 C     3.316247    -0.210914    -1.164922
 C     1.420072     1.569585     0.221348
 P     1.836325    -0.210785    -0.022907
 P    -1.752853    -0.381754    -0.101691
 C     0.578709    -2.753177     0.195201
 O     0.867886    -3.706469     0.800003
 H    -1.279291     1.942623     0.351187
 H    -1.525845     1.591174    -1.350867
 C    -3.325987     2.076537    -0.293014
 C    -4.300375     1.619142     0.601652
 H    -4.075602     0.764638     1.241060
 C    -3.649024     3.155337    -1.144503
 C    -2.652927     3.694252    -2.130605
 H    -2.349782     2.922780    -2.857350
 H    -1.733520     4.033096    -1.629341
 H    -3.072125     4.540651    -2.692705
 C    -5.559544     2.207465     0.676012
 H    -6.297692     1.819867     1.383074
 C    -4.919868     3.736025    -1.061023
 H    -5.161342     4.571933    -1.724304
 C    -5.875135     3.275390    -0.159419
 H    -6.861191     3.744573    -0.116593
 C    -4.462200    -1.541366    -0.238591
 O    -4.470128    -1.557696     1.107364
 C    -5.455163    -2.257364     1.804140
 H    -5.175763    -2.203370     2.864934
 H    -6.455779    -1.808401     1.671118
 H    -5.499267    -3.318011     1.499671
 C    -3.452262    -0.758497    -2.266536
 O    -2.439775    -0.064228    -2.838533
 C    -2.512624     0.265588    -4.193944
 H    -1.616425     0.859101    -4.418778
 H    -3.409322     0.869227    -4.417970
 H    -2.512441    -0.630381    -4.839438
 C    -4.534137    -1.237512    -3.012222
 H    -4.577564    -1.096118    -4.090959
 C    -5.543995    -2.042566    -0.976230
 H    -6.383357    -2.517112    -0.469761
 C    -5.564719    -1.897830    -2.356036
 H    -6.411230    -2.284178    -2.928404
 C    -1.887758     0.219366     2.752513
 O    -1.849237     1.538073     2.432292
 C    -2.522327     2.459407     3.243642
 H    -2.602011     3.387100     2.661398
 H    -3.536646     2.108792     3.495950
 H    -1.978775     2.676799     4.181286
 C    -1.980085    -2.087402     2.082008
 O    -2.107773    -2.950288     1.064246
 C    -2.149988    -4.326683     1.302503
 H    -2.232580    -4.803570     0.317875
 H    -3.025721    -4.606225     1.915511
 H    -1.225970    -4.678624     1.789045
 C    -1.960578    -2.491671     3.418143
 H    -1.989187    -3.549389     3.676688
 C    -1.891429    -0.177906     4.098038
 H    -1.865004     0.574705     4.886384
 C    -1.914538    -1.526365     4.420635
 H    -1.901732    -1.834572     5.468828
 H     2.040392    -0.598098     2.352184
 H     2.677927    -1.916676     1.374770
 C     4.110251    -0.350164     1.733368
 C     4.361489     0.973059     2.116406
 H     3.516642     1.643179     2.264626
 C     5.207834    -1.218653     1.542652
 C     5.018557    -2.669505     1.201362
 H     4.365821    -2.807510     0.329656
 H     4.549133    -3.217104     2.035392
 H     5.984250    -3.149107     0.989783
 C     5.656355     1.452560     2.289237
 H     5.816606     2.491349     2.589644
 C     6.504270    -0.718083     1.708157
 H     7.350691    -1.392075     1.548928
 C     6.739055     0.604341     2.073430
 H     7.763149     0.965560     2.196865
 C     4.179145     0.885015    -1.378402
 O     3.917265     2.011024    -0.696423
 C     4.790853     3.097911    -0.755515
 H     4.371685     3.861933    -0.087902
 H     5.800325     2.824917    -0.403351
 H     4.861384     3.517788    -1.774749
 C     3.654174    -1.419949    -1.808233
 O     2.922584    -2.497246    -1.469990
 C     3.124086    -3.732542    -2.091892
 H     2.388359    -4.414628    -1.647392
 H     4.139058    -4.125338    -1.904050
 H     2.956341    -3.674175    -3.181610
 C     4.726597    -1.509604    -2.704680
 H     4.955958    -2.451835    -3.200300
 C     5.263232     0.800343    -2.262739
 H     5.913957     1.659085    -2.420226
 C     5.517010    -0.391040    -2.928293
 H     6.361718    -0.454735    -3.618437
 C     1.205194     2.341420    -0.937545
 O     1.369522     1.682106    -2.102057
 C     1.266687     2.363861    -3.316097
 H     1.461956     1.624462    -4.103423
 H     0.258866     2.791347    -3.462070
 H     2.012845     3.173784    -3.393809
 C     1.129787     2.171849     1.456656
 O     1.234584     1.395499     2.555306
 C     1.106357     1.955294     3.829588
 H     1.254435     1.134928     4.543037
 H     0.104863     2.383549     3.986734
 H     1.867307     2.734958     4.010450
 C     0.750982     3.520132     1.535635
 H     0.540615     3.977507     2.501139
 C     0.849072     3.689110    -0.873236
 H     0.728838     4.279497    -1.780596
 C     0.628053     4.268758     0.373261
 H     0.336753     5.319725     0.436512
