  96
scf done:    -5173.457862
 C     0.851816    -3.836570    -0.826679
 H     1.905663    -3.669725    -1.077358
 H     0.732838    -4.787262    -0.293892
 C    -0.103696    -3.618046    -1.953905
 H     0.377072    -3.377881    -2.914249
 H    -0.843712    -4.417198    -2.097639
 H    -0.771123    -2.674514    -1.790750
Co    -0.188995    -2.317892    -0.172459
 O    -1.392620     0.519814    -1.084168
 C    -3.204760    -1.484720    -1.010009
 C    -2.298187    -0.153630     1.434887
 O     1.144363     0.369350     0.811569
 C     2.843753    -1.721043     0.982810
 C     2.278020    -0.362058    -1.571841
 P     1.493803    -1.052934    -0.064019
 P    -1.724566    -0.852134    -0.145496
 C    -0.702893    -3.206570     1.213415
 O    -0.963814    -3.793367     2.174779
 C    -1.892757     1.772985    -0.898837
 C    -2.751262     2.320876    -1.854659
 H    -3.040227     1.722093    -2.718801
 C    -1.513658     2.534534     0.209755
 H    -0.828410     2.106532     0.940202
 C    -3.245748     3.611443    -1.696613
 H    -3.920066     4.044450    -2.437301
 C    -2.012478     3.822580     0.376885
 H    -1.723709     4.417754     1.244350
 C    -2.883134     4.353063    -0.572729
Cl    -3.528111     5.949954    -0.354265
 C    -3.429175    -1.208346    -2.356002
 H    -2.758568    -0.514856    -2.867347
 C    -4.034048    -2.414701    -0.353956
 O    -3.729904    -2.651776     0.932928
 C    -4.365969    -3.684409     1.631760
 H    -5.436004    -3.467190     1.795224
 H    -3.855856    -3.758495     2.599683
 H    -4.268497    -4.648164     1.103260
 C    -4.479238    -1.813776    -3.048685
 H    -4.644085    -1.585033    -4.103645
 C    -5.087291    -3.022620    -1.040800
 H    -5.737943    -3.736603    -0.534710
 C    -5.305822    -2.714362    -2.384820
 H    -6.131612    -3.195425    -2.914644
 C    -1.461015    -0.296240     2.541422
 H    -0.525724    -0.841362     2.408250
 C    -3.507712     0.557506     1.577035
 O    -4.268305     0.673246     0.478538
 C    -5.382836     1.521456     0.484273
 H    -6.162694     1.166657     1.180009
 H    -5.783395     1.508597    -0.536764
 H    -5.100185     2.555498     0.745028
 C    -1.794685     0.255210     3.776072
 H    -1.125206     0.136222     4.629957
 C    -3.845970     1.113263     2.814669
 H    -4.773876     1.672792     2.933116
 C    -2.988484     0.959114     3.903073
 H    -3.265119     1.401394     4.863527
 C     1.882380     1.512699     0.780875
 C     1.750697     2.399603    -0.291181
 H     1.068610     2.151765    -1.104506
 C     2.735957     1.826313     1.840903
 H     2.831457     1.128982     2.673117
 C     2.491271     3.576892    -0.320493
 H     2.400263     4.268202    -1.159549
 C     3.473750     3.005487     1.819647
 H     4.148934     3.255336     2.639756
 C     3.357482     3.869086     0.731176
Cl     4.315284     5.316859     0.678938
 C     2.716084    -1.602378     2.366496
 H     1.856610    -1.060072     2.767334
 C     3.927467    -2.457296     0.469576
 O     3.977425    -2.595333    -0.871198
 C     5.100577    -3.172322    -1.469578
 H     6.025782    -2.633133    -1.199780
 H     4.947458    -3.098247    -2.553779
 H     5.213701    -4.235903    -1.195399
 C     3.656377    -2.153053     3.236865
 H     3.534713    -2.043082     4.316331
 C     4.879937    -3.002938     1.334217
 H     5.728372    -3.561938     0.938704
 C     4.742008    -2.846276     2.713583
 H     5.489974    -3.284293     3.378865
 C     1.484177    -0.402539    -2.718212
 H     0.495746    -0.860393    -2.632298
 C     3.546128     0.254133    -1.647617
 O     4.268679     0.294562    -0.519093
 C     5.464304     1.021150    -0.475357
 H     6.228777     0.592505    -1.147188
 H     5.822735     0.958833     0.559485
 H     5.303937     2.081480    -0.733420
 C     1.912641     0.144688    -3.927128
 H     1.269715     0.106670    -4.808568
 C     3.983750     0.800254    -2.858189
 H     4.958154     1.284640    -2.923985
 C     3.166890     0.742031    -3.987718
 H     3.523391     1.178873    -4.924106
