  76
scf done:    -3817.057778
 C     0.923898    -3.157127     0.596357
 H     0.934091    -4.049258    -0.041739
 H     1.893164    -3.036612     1.097755
 C    -0.264504    -3.044180     1.489762
 H    -1.038315    -3.809370     1.339454
 H    -0.024576    -2.969291     2.561147
 H    -0.838378    -2.037278     1.323245
Co     0.062992    -1.558658    -0.104446
 C     1.614674     0.771667     2.030859
 C     3.356299    -0.767668     0.319353
 C     1.720828     1.227324    -0.795930
 C    -1.610241     0.783981    -1.972733
 C    -3.219605    -0.970637    -0.316383
 C    -1.745104     1.125260     0.909304
 P    -1.573720    -0.156840    -0.391903
 P     1.622615    -0.146079     0.429607
 C     0.113721    -2.123226    -1.714028
 O     0.284787    -2.430866    -2.821296
 H     2.464888     1.470395     2.104238
 H     0.702420     1.388755     2.016424
 C     1.566722    -0.163626     3.231151
 H     2.445479    -0.831467     3.222048
 H     0.688749    -0.821178     3.121806
 C     1.496556     0.583705     4.552962
 H     2.386159     1.216218     4.702657
 H     0.614991     1.243589     4.587594
 H     1.433918    -0.108668     5.406217
 C     4.419139    -0.220798     1.048268
 H     4.245448     0.589191     1.759250
 C     3.631019    -1.801826    -0.585358
 H     2.807014    -2.252900    -1.142572
 C     5.720494    -0.688279     0.884351
 H     6.554723    -0.271743     1.451813
 C     4.928084    -2.269574    -0.773013
 H     5.150286    -3.072266    -1.478446
 C     5.958428    -1.706629    -0.030418
 F     7.201017    -2.155030    -0.194284
 C     1.857893     0.883073    -2.150363
 H     1.941745    -0.167299    -2.437929
 C     1.595653     2.580479    -0.464330
 H     1.495467     2.888776     0.576861
 C     1.858795     1.853558    -3.144782
 H     1.960386     1.591141    -4.199300
 C     1.575765     3.565569    -1.452999
 H     1.468585     4.623175    -1.204083
 C     1.702709     3.188008    -2.782317
 F     1.673935     4.121739    -3.731309
 H    -0.726156     1.441685    -1.945463
 H    -1.380689     0.032834    -2.746244
 C    -2.865150     1.562570    -2.338478
 H    -3.152299     2.235529    -1.512970
 H    -3.707665     0.863166    -2.460986
 C    -2.671962     2.371993    -3.612564
 H    -1.854074     3.102511    -3.502510
 H    -2.413962     1.719513    -4.461657
 H    -3.584195     2.925808    -3.881033
 C    -4.390232    -0.282169     0.031333
 H    -4.342196     0.775454     0.300587
 C    -3.304027    -2.331333    -0.633560
 H    -2.384078    -2.868158    -0.881330
 C    -5.619602    -0.932776     0.051666
 H    -6.540107    -0.412624     0.322860
 C    -4.528553    -2.994045    -0.623755
 H    -4.609305    -4.054256    -0.870295
 C    -5.671497    -2.282762    -0.280767
 F    -6.845180    -2.907951    -0.260697
 C    -2.022752     0.696619     2.217132
 H    -2.238232    -0.358786     2.406018
 C    -1.473719     2.480689     0.696578
 H    -1.248134     2.847992    -0.305185
 C    -2.021010     1.586259     3.283778
 H    -2.235518     1.260703     4.303188
 C    -1.458490     3.385761     1.758735
 H    -1.240162     4.443973     1.603730
 C    -1.726242     2.924973     3.039989
 F    -1.699761     3.777486     4.060836
