 100
scf done:    -4182.844454
 C    -1.374307    -3.247160    -1.129326
 H    -2.468394    -3.191033    -1.074198
 H    -1.068107    -3.820845    -2.011397
 C    -0.701897    -3.632094     0.143632
 H    -1.388513    -3.870529     0.968283
 H     0.062078    -4.415261     0.045240
 H    -0.116963    -2.735813     0.631108
Co    -0.315537    -1.649979    -0.728483
 C     0.721655     0.416256     1.688605
 O     2.572272    -1.168807     0.808534
 O     1.867280     0.617300    -0.926920
 C    -2.973256    -0.149975    -2.072467
 O    -3.404707    -1.232930     0.265029
 O    -2.244390     0.945395     0.288299
 P    -2.088911    -0.537542    -0.500909
 P     1.218862    -0.453584     0.147595
 C     0.290841    -1.639757    -2.341747
 O     0.549058    -1.577587    -3.464037
 H     0.585117    -0.441470     2.370565
 H    -0.281696     0.800279     1.468054
 C     1.562550     1.482318     2.312238
 C     1.133731     2.815077     2.267660
 H     0.186294     3.061634     1.781358
 C     2.778959     1.183506     2.935474
 H     3.113495     0.146005     2.976853
 C     1.920153     3.830421     2.808940
 H     1.574062     4.865396     2.756668
 C     3.566854     2.198636     3.470670
 H     4.521582     1.951591     3.941414
 C     3.143760     3.526542     3.404409
 H     3.764295     4.322212     3.823568
 C     3.425416    -2.039491     0.171118
 C     2.943680    -3.128742    -0.553149
 H     1.866673    -3.263836    -0.641976
 C     4.803621    -1.805313     0.307336
 C     5.319986    -0.663824     1.125637
 H     4.811827     0.277989     0.876600
 H     5.154441    -0.844904     2.200224
 H     6.398289    -0.529286     0.968030
 C     3.833532    -3.993276    -1.186287
 H     3.447113    -4.836984    -1.762375
 C     5.671361    -2.689297    -0.341033
 H     6.747420    -2.515288    -0.255788
 C     5.203572    -3.770232    -1.086368
 H     5.910475    -4.437638    -1.584081
 C     3.116432     1.196704    -1.012077
 C     3.436932     2.304735    -0.232738
 H     2.697610     2.702812     0.458256
 C     4.012208     0.692260    -1.970433
 C     3.625343    -0.420083    -2.891868
 H     3.396651    -1.347029    -2.346746
 H     2.723097    -0.163488    -3.465458
 H     4.437666    -0.638050    -3.597668
 C     4.694200     2.893746    -0.344581
 H     4.938929     3.754189     0.281937
 C     5.269467     1.299947    -2.053803
 H     5.984508     0.912137    -2.784248
 C     5.621404     2.379848    -1.246634
 H     6.613419     2.828259    -1.336773
 H    -3.238434    -1.138272    -2.480529
 H    -2.214139     0.272580    -2.747571
 C    -4.160135     0.755732    -1.940133
 C    -4.053194     2.115783    -2.254020
 H    -3.105957     2.509425    -2.630306
 C    -5.385759     0.274420    -1.462371
 H    -5.481354    -0.783534    -1.212687
 C    -5.134615     2.976582    -2.078151
 H    -5.025999     4.035754    -2.323183
 C    -6.468302     1.132406    -1.289442
 H    -7.416293     0.738794    -0.914437
 C    -6.345535     2.488882    -1.590834
 H    -7.194478     3.162446    -1.451309
 C    -3.291613    -1.905257     1.445584
 C    -2.441335    -1.468593     2.461543
 H    -1.889984    -0.538153     2.329621
 C    -4.077305    -3.060148     1.600775
 C    -5.019199    -3.482746     0.515848
 H    -5.534687    -4.415202     0.782187
 H    -5.780626    -2.708834     0.330466
 H    -4.491214    -3.641171    -0.437472
 C    -2.323896    -2.210667     3.635260
 H    -1.652182    -1.867302     4.425630
 C    -3.946250    -3.778574     2.791724
 H    -4.546482    -4.682743     2.925552
 C    -3.070400    -3.374273     3.799702
 H    -2.984275    -3.961182     4.716598
 C    -1.732854     2.145878    -0.092630
 C    -0.709722     2.275218    -1.029826
 H    -0.294177     1.391956    -1.515597
 C    -2.284928     3.270948     0.546987
 C    -3.424772     3.086609     1.497545
 H    -4.277823     2.616402     0.981835
 H    -3.152304     2.414095     2.325914
 H    -3.751085     4.047636     1.917429
 C    -0.192171     3.537762    -1.319610
 H     0.625667     3.626936    -2.037998
 C    -1.752831     4.521478     0.230554
 H    -2.173189     5.406031     0.717104
 C    -0.709773     4.664089    -0.687942
 H    -0.307868     5.654945    -0.909825
