 102
scf done:    -4357.379032
 C     0.107124    -0.336948    -3.577770
 H    -0.093193     0.208137    -4.507864
 H     1.124400    -0.744174    -3.606554
 C    -0.942421    -1.328541    -3.192286
 H    -1.782606    -1.402654    -3.897917
 H    -0.567515    -2.340525    -2.974426
 H    -1.469095    -1.043663    -2.192662
Co    -0.564826     0.437535    -1.927776
 C     2.047972    -1.659561    -0.956595
 C     2.649980     1.141754    -1.761259
 C     1.385958     0.634443     0.869171
 C    -1.702950     2.657193     0.349604
 C    -3.745669     1.037058    -1.014764
 C    -2.250645    -0.000586     1.235692
 P    -1.996678     0.944223    -0.354882
 P     1.338449     0.088167    -0.926095
 C    -0.756016     1.965125    -2.664083
 O    -0.739765     3.035454    -3.116041
 H     1.635059    -2.139369    -0.055933
 H     1.535881    -2.121167    -1.814380
 C     3.526881    -1.914287    -1.030943
 C     4.261979    -2.048900     0.154315
 H     3.738261    -1.991894     1.106789
 C     4.203252    -2.062124    -2.263965
 C     3.489209    -2.054449    -3.585099
 H     3.104992    -1.058631    -3.856955
 H     2.624493    -2.735871    -3.588166
 H     4.164445    -2.370642    -4.391418
 C     5.636815    -2.253967     0.148696
 H     6.173504    -2.343850     1.095909
 C     5.590226    -2.262474    -2.252159
 H     6.110888    -2.370378    -3.207640
 C     6.312991    -2.343923    -1.065159
 H     7.393958    -2.500057    -1.091651
 H     3.076970     0.510817    -2.552444
 H     2.064875     1.922458    -2.267014
 C     3.736346     1.764855    -0.940668
 C     3.527208     3.009626    -0.328906
 H     2.574869     3.527162    -0.476418
 C     4.984470     1.151570    -0.772296
 H     5.185532     0.193668    -1.253112
 C     4.512254     3.614170     0.449404
 H     4.353597     4.583733     0.924755
 C     5.981522     1.742015    -0.001473
 H     6.952598     1.261965     0.131562
 C     5.731062     2.965470     0.607838
 F     6.681504     3.534679     1.349264
 H     1.623737     1.707785     0.830885
 H     0.336202     0.559953     1.174377
 C     2.224511    -0.057725     1.896096
 C     1.746362    -1.218675     2.521046
 H     0.760660    -1.611932     2.253815
 C     3.475560     0.436421     2.283625
 H     3.860980     1.347064     1.824153
 C     2.503236    -1.888957     3.479326
 H     2.138617    -2.795389     3.965640
 C     4.243269    -0.218899     3.241649
 H     5.221367     0.160631     3.542620
 C     3.750584    -1.380993     3.823108
 F     4.483598    -2.015623     4.737313
 H    -0.865110     2.525293     1.051682
 H    -1.319343     3.259760    -0.483395
 C    -2.869000     3.312795     1.020289
 C    -3.159369     3.032645     2.361639
 H    -2.483580     2.385408     2.926488
 C    -3.712803     4.190825     0.304021
 C    -3.411450     4.583300    -1.114260
 H    -3.307827     3.716950    -1.784532
 H    -2.461742     5.138043    -1.184154
 H    -4.203432     5.227670    -1.519104
 C    -4.278602     3.569463     2.991815
 H    -4.481068     3.335635     4.039581
 C    -4.835043     4.719361     0.952216
 H    -5.491299     5.396150     0.398293
 C    -5.128380     4.410815     2.278242
 H    -6.012410     4.839189     2.756223
 H    -4.233267     1.906048    -0.550119
 H    -3.637931     1.235090    -2.090909
 C    -4.573684    -0.185508    -0.763142
 C    -4.368077    -1.373087    -1.478021
 H    -3.615109    -1.402140    -2.267347
 C    -5.561452    -0.172553     0.228480
 H    -5.747047     0.749205     0.787354
 C    -5.098883    -2.521538    -1.195687
 H    -4.931340    -3.454593    -1.736076
 C    -6.310212    -1.311135     0.518386
 H    -7.081174    -1.309522     1.291134
 C    -6.056067    -2.477677    -0.189498
 F    -6.743184    -3.581451     0.104357
 H    -1.416577     0.290837     1.897190
 H    -3.163593     0.384033     1.714206
 C    -2.317167    -1.499144     1.132158
 C    -3.306549    -2.214737     1.815378
 H    -4.051880    -1.674035     2.402341
 C    -1.376199    -2.222846     0.389706
 H    -0.617881    -1.672715    -0.171240
 C    -3.374552    -3.603344     1.745770
 H    -4.158172    -4.163288     2.259114
 C    -1.424659    -3.611473     0.310468
 H    -0.694663    -4.176498    -0.272565
 C    -2.431879    -4.286656     0.988430
 F    -2.494080    -5.615583     0.911469
