 110
scf done:    -3665.624787
 C    -0.999031     0.422043    -3.171644
 H    -0.774699    -0.110932    -4.103077
 H    -2.086383     0.574430    -3.095165
 C    -0.190686     1.659165    -2.946935
 H     0.599501     1.839873    -3.688072
 H    -0.782671     2.579689    -2.820670
 H     0.363802     1.622144    -1.920171
Co     0.037584    -0.073963    -1.601032
 C    -2.634130     1.599062    -0.284732
 C    -2.995342    -1.261556    -1.024001
 C    -1.695608    -0.532364     1.420971
 C     2.450419    -1.553675     0.370303
 C     3.152573     0.838097    -1.246586
 C     1.698185     1.089179     1.245565
 P     1.768509     0.059899    -0.285165
 P    -1.749042    -0.057287    -0.363744
 C     0.573318    -1.535014    -2.295342
 O     0.869676    -2.583072    -2.701417
 H    -1.986776     2.201080     0.373363
 H    -2.528145     2.026103    -1.291701
 C    -4.051994     1.659007     0.187722
 C    -4.325068     1.650375     1.562168
 H    -3.488785     1.668110     2.266012
 C    -5.132178     1.693373    -0.721091
 C    -4.910762     1.774313    -2.203966
 H    -4.345008     0.912209    -2.588032
 H    -4.340395     2.676099    -2.479749
 H    -5.867906     1.807621    -2.741793
 C    -5.628607     1.612907     2.048060
 H    -5.810741     1.596058     3.125165
 C    -6.436586     1.657299    -0.216897
 H    -7.272854     1.675791    -0.921460
 C    -6.693735     1.601474     1.151193
 H    -7.723732     1.567536     1.513633
 H    -2.395438    -2.149681    -1.285527
 H    -3.310302    -0.847751    -1.992926
 C    -4.190247    -1.659461    -0.167940
 H    -3.831451    -2.159920     0.746727
 H    -4.741523    -0.769959     0.173494
 C    -5.178027    -2.601724    -0.863917
 H    -4.609541    -3.478808    -1.227676
 C    -6.218591    -3.093166     0.136295
 H    -5.747443    -3.608604     0.988016
 H    -6.929800    -3.792803    -0.329921
 H    -6.797348    -2.245282     0.539636
 C    -5.856033    -1.948607    -2.063762
 H    -6.572750    -2.637509    -2.537124
 H    -5.134507    -1.646552    -2.837527
 H    -6.410886    -1.048566    -1.750390
 H    -2.707006    -0.482442     1.855927
 H    -1.090188     0.234070     1.929783
 C    -1.102335    -1.920263     1.610677
 H    -1.734144    -2.656471     1.086250
 H    -0.128754    -1.968402     1.096340
 C    -0.947879    -2.378264     3.063210
 H    -1.948745    -2.329433     3.532317
 C    -0.477533    -3.827823     3.107800
 H    -1.167045    -4.491452     2.563426
 H    -0.399670    -4.196345     4.142357
 H     0.517053    -3.930524     2.642070
 C    -0.014329    -1.484434     3.872257
 H     0.062294    -1.832307     4.913850
 H    -0.358488    -0.439804     3.900738
 H     1.005002    -1.493290     3.450139
 H     1.850681    -1.760494     1.268693
 H     2.175521    -2.317741    -0.368470
 C     3.908954    -1.599195     0.700284
 C     4.353378    -1.149870     1.950379
 H     3.614332    -0.826681     2.688712
 C     4.853344    -2.060709    -0.240996
 C     4.432226    -2.640423    -1.561580
 H     3.732680    -1.996354    -2.113348
 H     3.912168    -3.602952    -1.424883
 H     5.303491    -2.822004    -2.205507
 C     5.707823    -1.097606     2.265669
 H     6.029263    -0.734537     3.244584
 C     6.211246    -2.001025     0.092101
 H     6.946884    -2.351004    -0.637485
 C     6.645003    -1.513967     1.323206
 H     7.712998    -1.475378     1.549978
 H     2.664246     1.589729    -1.888773
 H     3.486067     0.052639    -1.941008
 C     4.327481     1.469763    -0.513505
 H     3.956418     2.271211     0.147337
 H     4.816294     0.734716     0.144105
 C     5.386749     2.074567    -1.440890
 H     4.880319     2.809510    -2.095797
 C     6.432550     2.817780    -0.617266
 H     5.974474     3.604380     0.002900
 H     7.189959     3.293044    -1.259821
 H     6.956146     2.122328     0.059799
 C     6.048945     1.027686    -2.330408
 H     6.820896     1.484074    -2.969187
 H     5.328667     0.527083    -2.994729
 H     6.533165     0.250866    -1.716222
 H     2.699127     1.158896     1.701704
 H     1.060200     0.537272     1.952664
 C     1.127006     2.469312     0.959845
 H     1.774856     2.987166     0.231002
 H     0.154589     2.346831     0.450441
 C     0.950416     3.377222     2.179014
 H     1.936516     3.468510     2.672237
 C     0.514438     4.769183     1.735907
 H     1.235733     5.212640     1.031959
 H     0.414871     5.453216     2.592708
 H    -0.463819     4.728224     1.227870
 C    -0.029911     2.803549     3.196106
 H    -0.138900     3.473167     4.062894
 H     0.291488     1.823217     3.578231
 H    -1.030695     2.679598     2.748327
