 108
scf done:    -4335.834296
 C     0.914248    -2.944037    -0.694878
 H     0.887221    -3.510415    -1.635331
 H     1.913082    -3.009870    -0.242174
 C    -0.232312    -3.219267     0.224515
 H    -1.071651    -3.761528    -0.233622
 H     0.045255    -3.721154     1.163620
 H    -0.684251    -2.235777     0.642624
Co     0.051924    -1.214619    -0.608914
 C     1.434001     1.056142     1.864909
 C     3.234814    -0.826549     0.939094
 C     2.114957     1.058911    -1.036489
 C    -2.110962     1.036680    -1.980157
 C    -3.317597    -1.056619    -0.426024
 C    -1.927979     1.101833     0.998582
 P    -1.785354     0.005085    -0.489834
 P     1.646412    -0.032410     0.382239
 C     0.166462    -1.170825    -2.290422
 O     0.330785    -1.178891    -3.444725
 H     0.523581     1.644071     1.706291
 H     1.207458     0.331270     2.666012
 C     2.588141     1.955258     2.277043
 H     2.903741     2.564904     1.416467
 H     3.461048     1.338471     2.546210
 C     2.213118     2.857959     3.443144
 H     1.362422     3.508384     3.181718
 H     1.907042     2.267876     4.322742
 H     3.052188     3.503076     3.748662
 C     4.531518    -0.410198     0.577353
 O     4.632613     0.762864    -0.071037
 C     5.813483     1.104239    -0.731785
 H     5.587785     2.002166    -1.321987
 H     6.633399     1.332899    -0.027312
 H     6.143746     0.302510    -1.415298
 C     3.139445    -1.937423     1.797093
 O     1.902753    -2.221469     2.276295
 C     1.753146    -3.316682     3.131118
 H     0.692704    -3.360314     3.406253
 H     2.354293    -3.205163     4.050830
 H     2.029060    -4.264995     2.637630
 C     4.264764    -2.690916     2.157661
 H     4.173509    -3.566242     2.798480
 C     5.663581    -1.162791     0.917598
 H     6.656433    -0.841512     0.604195
 C     5.515743    -2.305854     1.691756
 H     6.395987    -2.894028     1.962112
 C     1.674214     2.382076    -1.194720
 O     0.977897     2.927044    -0.167629
 C     0.748263     4.301955    -0.150622
 H     0.273972     4.523710     0.814746
 H     1.690617     4.873237    -0.227076
 H     0.071323     4.621463    -0.961447
 C     2.774589     0.466624    -2.134053
 O     3.166295    -0.807505    -1.952102
 C     3.591684    -1.572782    -3.042117
 H     3.736900    -2.592161    -2.662190
 H     4.549696    -1.207222    -3.454252
 H     2.828979    -1.587328    -3.837881
 C     3.017064     1.167304    -3.317220
 H     3.524215     0.684992    -4.151898
 C     1.923024     3.100492    -2.373236
 H     1.579303     4.128775    -2.476961
 C     2.591930     2.487077    -3.424185
 H     2.775092     3.042961    -4.346689
 H    -1.418694     1.888585    -1.920069
 H    -1.766678     0.405089    -2.812323
 C    -3.546086     1.477149    -2.220927
 H    -3.955423     1.941126    -1.310579
 H    -4.164564     0.584672    -2.410531
 C    -3.660576     2.435875    -3.395860
 H    -3.073392     3.352469    -3.221646
 H    -3.275235     1.978947    -4.321546
 H    -4.704709     2.734270    -3.579387
 C    -4.359633    -0.967634     0.519876
 O    -4.400793     0.135419     1.289416
 C    -5.263044     0.203827     2.384571
 H    -5.014187     1.133295     2.913622
 H    -6.323399     0.236916     2.076768
 H    -5.121356    -0.647808     3.073498
 C    -3.402821    -2.104036    -1.369205
 O    -2.527473    -2.047675    -2.384077
 C    -2.338321    -3.148878    -3.228034
 H    -1.484357    -2.893890    -3.867200
 H    -3.225520    -3.337922    -3.857358
 H    -2.101486    -4.061503    -2.654455
 C    -4.367242    -3.114842    -1.267820
 H    -4.394455    -3.929484    -1.990473
 C    -5.330332    -1.973647     0.629978
 H    -6.113545    -1.905516     1.384012
 C    -5.311104    -3.047393    -0.251464
 H    -6.068578    -3.830108    -0.164350
 C    -1.801291     0.450763     2.244846
 O    -1.776880    -0.894616     2.187895
 C    -1.645947    -1.642015     3.359785
 H    -1.655413    -2.696177     3.054866
 H    -0.698168    -1.421841     3.879962
 H    -2.486978    -1.464928     4.053004
 C    -2.044950     2.501826     1.025899
 O    -2.216978     3.154439    -0.146461
 C    -2.764842     4.441409    -0.141482
 H    -2.992110     4.687252    -1.187160
 H    -2.063477     5.198431     0.250031
 H    -3.696276     4.482924     0.449134
 C    -1.990386     3.212844     2.235862
 H    -2.070606     4.299268     2.237577
 C    -1.746703     1.146295     3.453790
 H    -1.633535     0.618502     4.399456
 C    -1.830872     2.533901     3.435090
 H    -1.776711     3.093783     4.371471
