 100
scf done:    -3734.556090
 C    -0.882484    -3.942602    -0.517522
 H    -0.780992    -4.858040     0.077450
 H    -1.889300    -3.896686    -0.955533
 C     0.225726    -3.710911    -1.491971
 H     1.072638    -4.406168    -1.409966
 H    -0.092552    -3.656351    -2.545084
 H     0.685135    -2.638424    -1.369156
Co    -0.052147    -2.331458     0.194637
 C    -2.438183    -0.531383    -1.765160
 C    -3.228159    -1.871388     0.691636
 C    -1.728701     0.643266     0.766257
 C     1.778640    -0.201166     2.160063
 C     3.188521    -2.033745     0.337678
 C     1.798521     0.407055    -0.728139
 P     1.630239    -0.995036     0.500758
 P    -1.764536    -1.026532    -0.112876
 C     0.063711    -2.998005     1.758760
 O     0.027227    -3.387616     2.852292
 H    -3.346209     0.080240    -1.633449
 H    -1.685884     0.146220    -2.203123
 C    -2.692515    -1.689779    -2.717942
 H    -3.408018    -2.400993    -2.269857
 H    -1.758641    -2.257312    -2.856509
 C    -3.223148    -1.226728    -4.066077
 H    -4.176646    -0.685886    -3.953162
 H    -2.515614    -0.539433    -4.556839
 H    -3.396394    -2.073766    -4.747447
 H    -3.414308    -2.756728     0.064915
 H    -2.821817    -2.256367     1.638396
 C    -4.484365    -1.099047     0.926002
 C    -4.789773    -0.617628     2.206478
 H    -4.112479    -0.834592     3.037004
 C    -5.385547    -0.833566    -0.112523
 H    -5.178293    -1.228289    -1.110938
 C    -5.954651     0.112160     2.429894
 H    -6.187214     0.470864     3.435565
 C    -6.548879    -0.085139     0.087138
 C    -7.454824     0.237245    -1.065083
 H    -7.107239     1.144773    -1.587239
 H    -7.473251    -0.576573    -1.804642
 H    -8.485839     0.423795    -0.731891
 C    -6.826738     0.382384     1.377560
 H    -7.740778     0.954463     1.559386
 H    -2.206467     0.480199     1.744029
 H    -0.667419     0.837288     0.970048
 C    -2.334833     1.824059     0.064760
 C    -1.586187     2.556590    -0.865246
 H    -0.545276     2.289686    -1.062125
 C    -3.660832     2.210225     0.296073
 H    -4.257435     1.653725     1.021411
 C    -2.154052     3.628386    -1.549356
 H    -1.554819     4.186840    -2.272763
 C    -4.245898     3.286633    -0.378063
 C    -5.660045     3.698449    -0.085205
 H    -6.200839     2.908203     0.453083
 H    -5.684732     4.606200     0.540430
 H    -6.211218     3.929904    -1.009575
 C    -3.476879     3.989409    -1.313453
 H    -3.918674     4.830702    -1.854966
 H     1.049085     0.625454     2.157756
 H     1.375248    -0.942069     2.869671
 C     3.135899     0.301808     2.637674
 H     3.629538     0.889594     1.849340
 H     3.789316    -0.563343     2.837509
 C     3.017074     1.143680     3.898430
 H     2.425452     2.052682     3.705724
 H     2.521705     0.586935     4.710100
 H     4.005400     1.462624     4.262906
 H     3.446845    -2.330099     1.365452
 H     2.830366    -2.947030    -0.156872
 C     4.378983    -1.496658    -0.394561
 C     4.433213    -1.581171    -1.793744
 H     3.609523    -2.052530    -2.337764
 C     5.461203    -0.920636     0.275327
 H     5.438220    -0.857009     1.365623
 C     5.530594    -1.084082    -2.490051
 H     5.561071    -1.154645    -3.580037
 C     6.575670    -0.419433    -0.405780
 C     7.718731     0.183026     0.358012
 H     7.358478     0.902139     1.109422
 H     8.286636    -0.592843     0.896889
 H     8.419015     0.706810    -0.307528
 C     6.595201    -0.502937    -1.801695
 H     7.455608    -0.115638    -2.354162
 H     2.233745    -0.043484    -1.633078
 H     0.751890     0.636404    -0.976851
 C     2.532979     1.655904    -0.341604
 C     1.917239     2.625839     0.459187
 H     0.878957     2.500183     0.774618
 C     3.850050     1.879001    -0.762233
 H     4.333726     1.141734    -1.406431
 C     2.618813     3.760726     0.859496
 H     2.127065     4.506187     1.489261
 C     4.565463     3.015698    -0.376728
 C     5.971415     3.240668    -0.853706
 H     6.326687     2.395472    -1.458372
 H     6.040330     4.152842    -1.467933
 H     6.665109     3.369466    -0.007889
 C     3.936544     3.950835     0.455357
 H     4.481167     4.844227     0.773762
