 114
scf done:    -3817.952862
 C    -1.125767    -1.744629    -2.554671
 H    -0.830703    -2.719018    -2.963195
 H    -2.221547    -1.693790    -2.488195
 C    -0.494005    -0.573845    -3.225065
 H     0.249190    -0.819297    -3.995400
 H    -1.203585     0.164025    -3.632547
 H     0.103524     0.083406    -2.464585
Co    -0.025559    -1.017168    -1.111895
 C    -2.551820     1.215604    -0.960368
 C    -3.226222    -1.479928     0.000034
 C    -1.842462     0.369792     1.734891
 C     2.146150    -0.325349     1.449886
 C     3.304764    -0.363888    -1.245968
 C     1.522759     1.938101    -0.444344
 P     1.727217     0.076180    -0.345275
 P    -1.800341    -0.245584    -0.031002
 C     0.588273    -2.568858    -0.771300
 O     0.904907    -3.658640    -0.519924
 H    -1.872359     2.054989    -0.742344
 H    -2.390527     0.971648    -2.018150
 C    -3.975695     1.598375    -0.707292
 C    -4.305160     2.363756     0.420047
 H    -3.502425     2.732163     1.062670
 C    -5.013614     1.173233    -1.566204
 C    -4.732010     0.453838    -2.855694
 H    -4.175284    -0.484425    -2.711165
 H    -4.127850     1.076155    -3.536237
 H    -5.667036     0.206495    -3.376504
 C    -5.625934     2.654770     0.746677
 H    -5.851060     3.245234     1.637934
 C    -6.336957     1.467022    -1.218794
 H    -7.140642     1.126278    -1.877534
 C    -6.652722     2.186079    -0.068775
 H    -7.696410     2.394659     0.177319
 H    -3.633835    -1.380687    -1.020645
 C    -4.387166    -1.209474     0.962698
 H    -4.744740    -0.174835     0.884210
 H    -4.045991    -1.351104     2.003014
 C    -5.543160    -2.170490     0.696127
 H    -6.366998    -1.966869     1.399768
 H    -5.945107    -1.972370    -0.314294
 C    -5.100765    -3.625117     0.794154
 H    -5.937659    -4.301854     0.555195
 H    -4.813822    -3.843621     1.839131
 C    -3.910186    -3.901162    -0.116340
 H    -4.228998    -3.805972    -1.170753
 H    -3.560496    -4.939126     0.007079
 C    -2.760675    -2.931750     0.138037
 H    -2.358298    -3.100875     1.152169
 H    -1.930169    -3.126026    -0.551538
 H    -2.902923     0.587257     1.950237
 C    -1.055398     1.652917     1.990894
 H    -1.381635     2.462350     1.319142
 H     0.005903     1.479182     1.762511
 C    -1.174474     2.106181     3.442390
 H    -0.588074     3.026855     3.598185
 H    -2.227069     2.366593     3.656583
 C    -0.719998     1.012456     4.401340
 H    -0.842882     1.339367     5.446540
 H     0.361487     0.832199     4.259544
 C    -1.480493    -0.284212     4.153053
 H    -2.544308    -0.135352     4.413026
 H    -1.108225    -1.082354     4.815618
 C    -1.383293    -0.729307     2.697244
 H    -0.343743    -1.004986     2.457367
 H    -1.976577    -1.642511     2.548235
 H     1.638090     0.434645     2.058897
 H     1.598833    -1.262354     1.617669
 C     3.573629    -0.470268     1.894570
 C     4.261332     0.627379     2.428846
 H     3.736827     1.577846     2.539173
 C     4.242000    -1.712230     1.810072
 C     3.537899    -2.966379     1.380839
 H     3.141392    -2.918884     0.357006
 H     2.671472    -3.182947     2.026112
 H     4.213882    -3.830434     1.432912
 C     5.596245     0.543532     2.810681
 H     6.104169     1.421274     3.217027
 C     5.589170    -1.776585     2.187396
 H     6.107451    -2.736412     2.111050
 C     6.273335    -0.664742     2.669620
 H     7.324741    -0.749114     2.954139
 H     3.566512    -1.318219    -0.755623
 C     4.512912     0.562154    -1.090207
 H     4.703037     0.790016    -0.033720
 H     4.311665     1.522030    -1.595086
 C     5.756105    -0.069969    -1.711127
 H     6.615805     0.611543    -1.604064
 H     6.011450    -0.981370    -1.141169
 C     5.534049    -0.426490    -3.176028
 H     6.428421    -0.916152    -3.594771
 H     5.389888     0.503809    -3.755823
 C     4.308323    -1.316389    -3.348652
 H     4.498061    -2.294455    -2.870507
 H     4.128086    -1.523934    -4.416117
 C     3.064756    -0.696796    -2.720292
 H     2.793363     0.220143    -3.272580
 H     2.204792    -1.378489    -2.797816
 H     0.467774     2.040377    -0.141216
 C     1.587815     2.446474    -1.888156
 H     0.963464     1.820358    -2.543143
 H     2.618384     2.366337    -2.269924
 C     1.134552     3.900058    -1.980006
 H     1.208560     4.251431    -3.021862
 H     0.065539     3.963177    -1.705635
 C     1.947326     4.795008    -1.053192
 H     1.588883     5.835628    -1.107389
 H     2.998430     4.809571    -1.394291
 C     1.893511     4.287366     0.381950
 H     0.857059     4.372045     0.757192
 H     2.513332     4.918055     1.039787
 C     2.338190     2.830176     0.488834
 H     3.411954     2.748744     0.255045
 H     2.216566     2.497176     1.530211
