 100
scf done:    -4182.830010
 C    -1.673687    -2.231733    -2.804379
 H    -1.577299    -3.272363    -3.134943
 H    -2.732558    -1.943726    -2.759158
 C    -0.801257    -1.252443    -3.518926
 H    -0.177208    -1.684533    -4.312639
 H    -1.340551    -0.370662    -3.892138
 H    -0.013537    -0.748174    -2.815397
Co    -0.447912    -1.671770    -1.392472
 C    -3.251304    -1.961091     0.289789
 O    -1.947449     0.170229     0.990815
 O    -2.963074     0.234402    -1.409826
 C     1.337433    -0.608367     1.318977
 O     2.612145    -1.841271    -0.831353
 O     1.748628     0.572196    -1.183281
 P     1.298707    -0.876859    -0.517940
 P    -2.052942    -0.747746    -0.415657
 C    -0.100304    -3.293467    -0.941039
 O     0.033109    -4.372451    -0.550230
 H    -2.606315    -2.570516     0.944651
 H    -3.509334    -2.607993    -0.561930
 C    -4.479033    -1.498924     1.017786
 C    -5.741211    -1.624475     0.426875
 H    -5.824485    -2.058980    -0.572142
 C    -4.396565    -0.946360     2.302201
 H    -3.420064    -0.849985     2.779403
 C    -6.886222    -1.181152     1.082311
 H    -7.859339    -1.277660     0.594944
 C    -5.540589    -0.503559     2.960538
 H    -5.455499    -0.070339     3.960318
 C    -6.790049    -0.613059     2.351401
 H    -7.687153    -0.262630     2.867578
 C    -1.232482     1.321996     1.120927
 C    -0.848938     1.689553     2.411840
 H    -1.139488     1.051915     3.249029
 C    -0.883985     2.131165     0.036902
 H    -1.203294     1.862464    -0.970642
 C    -0.082633     2.833720     2.609370
 H     0.225559     3.099759     3.624292
 C    -0.127388     3.278636     0.258608
 H     0.140379     3.905624    -0.594409
 C     0.306401     3.644747     1.536538
 C     1.184554     4.845438     1.733730
 H     2.203350     4.640206     1.365583
 H     1.257220     5.123957     2.794615
 H     0.807692     5.717172     1.177327
 C    -4.241052     0.702304    -1.246108
 C    -4.600004     1.508740    -0.164812
 H    -3.860951     1.763079     0.594176
 C    -5.179307     0.390625    -2.226151
 H    -4.871910    -0.224155    -3.074858
 C    -5.911706     1.951840    -0.052888
 H    -6.190633     2.560897     0.811154
 C    -6.488008     0.852205    -2.102642
 H    -7.220897     0.594499    -2.872371
 C    -6.883134     1.627108    -1.008749
 C    -8.304114     2.077684    -0.837208
 H    -8.784055     1.547950     0.002860
 H    -8.902234     1.883979    -1.738861
 H    -8.363800     3.154356    -0.614900
 H     0.304624    -0.852014     1.609850
 H     1.463858     0.467440     1.506436
 C     2.300631    -1.425733     2.125349
 C     3.257371    -0.805011     2.936052
 H     3.291578     0.286544     2.985000
 C     2.251504    -2.826423     2.099002
 H     1.514710    -3.335611     1.473249
 C     4.161617    -1.560062     3.681933
 H     4.904032    -1.055890     4.305271
 C     3.151708    -3.581277     2.845208
 H     3.102786    -4.671916     2.804962
 C     4.115939    -2.951573     3.634135
 H     4.825069    -3.546166     4.214759
 C     3.918882    -1.465698    -1.009184
 C     4.876831    -1.809008    -0.058289
 H     4.580083    -2.376388     0.823994
 C     4.293580    -0.771723    -2.160654
 H     3.536183    -0.528910    -2.907235
 C     6.198707    -1.410350    -0.244481
 H     6.942520    -1.677008     0.511467
 C     5.615441    -0.376356    -2.326211
 H     5.894726     0.183231    -3.223220
 C     6.591534    -0.674097    -1.366776
 C     8.006432    -0.202733    -1.538362
 H     8.686499    -0.703164    -0.834587
 H     8.084938     0.882989    -1.362066
 H     8.374049    -0.391679    -2.558556
 C     2.620342     1.560862    -0.826834
 C     3.576034     1.451030     0.180507
 H     3.704428     0.521421     0.731865
 C     2.541442     2.738009    -1.573287
 H     1.801983     2.796923    -2.373836
 C     4.423268     2.525132     0.446562
 H     5.174636     2.414644     1.233346
 C     3.397574     3.797315    -1.299320
 H     3.323454     4.709716    -1.897894
 C     4.351796     3.718878    -0.276082
 C     5.246351     4.881804     0.040990
 H     6.148390     4.560661     0.581233
 H     4.729032     5.620693     0.676680
 H     5.564715     5.407684    -0.871443
