  96
scf done:    -3882.049768
 C    -0.939764    -2.693994    -2.129267
 H    -0.722566    -3.768092    -2.077701
 H    -2.019773    -2.547949    -2.279527
 C    -0.065011    -1.926139    -3.066868
 H     0.699938    -2.524226    -3.581435
 H    -0.606072    -1.316357    -3.806477
 H     0.576001    -1.122018    -2.511262
Co     0.026576    -1.536451    -0.897780
 C    -2.730064     0.226780    -1.917290
 C    -2.999868    -1.272704     0.545370
 C    -1.563376     1.151722     0.588378
 C     1.905886    -0.321868     1.688002
 C     3.247316    -0.647931    -0.880400
 C     1.524870     1.559452    -0.546672
 P     1.605738    -0.234304    -0.166496
 P    -1.734866    -0.364115    -0.433877
 C     0.474127    -2.825112     0.129958
 O     0.694535    -3.663233     0.902851
 H    -2.599325    -0.575486    -2.658250
 H    -2.193484     1.103054    -2.311065
 C    -4.186469     0.496741    -1.713664
 C    -4.671629     1.770004    -1.390278
 H    -3.980362     2.612381    -1.325641
 C    -5.103795    -0.560060    -1.792309
 H    -4.741425    -1.563496    -2.031480
 C    -6.026764     1.976200    -1.137815
 H    -6.382609     2.978038    -0.884620
 C    -6.457370    -0.357239    -1.543527
 H    -7.150576    -1.199637    -1.603730
 C    -6.925158     0.913035    -1.208887
 H    -7.986994     1.074790    -1.008585
 C    -2.962490    -2.666774     0.607446
 H    -2.146589    -3.197597     0.114813
 C    -4.040130    -0.602619     1.206957
 H    -4.093571     0.487596     1.175634
 C    -3.947650    -3.374290     1.295280
 H    -3.897839    -4.466237     1.329127
 C    -5.014813    -1.312202     1.895445
 H    -5.820335    -0.767023     2.395641
 C    -4.990350    -2.712948     1.949058
 C    -6.044101    -3.467696     2.705009
 H    -5.936822    -3.315108     3.791562
 H    -7.054368    -3.126556     2.430582
 H    -5.983817    -4.548079     2.512762
 C    -1.570900     2.451709     0.071881
 H    -1.754872     2.624563    -0.988542
 C    -1.286993     0.992883     1.952722
 H    -1.281349    -0.010596     2.387411
 C    -1.317457     3.549059     0.887902
 H    -1.328130     4.551648     0.451451
 C    -1.025091     2.092857     2.764887
 H    -0.814137     1.936990     3.826878
 C    -1.031744     3.393038     2.248160
 C    -0.709832     4.580361     3.106340
 H    -1.420280     5.404158     2.938777
 H    -0.728139     4.325590     4.175344
 H     0.295740     4.970257     2.873965
 H     1.328671    -1.199700     2.009059
 H     1.420167     0.556813     2.134542
 C     3.334695    -0.462844     2.112788
 C     4.072227     0.614296     2.613928
 H     3.584474     1.580566     2.767490
 C     3.980930    -1.697762     1.960784
 H     3.413639    -2.552819     1.584040
 C     5.424151     0.474583     2.925620
 H     5.981709     1.329929     3.315278
 C     5.330620    -1.839159     2.264453
 H     5.816669    -2.807849     2.126153
 C     6.061212    -0.750127     2.741079
 H     7.122370    -0.859525     2.977184
 C     3.445757    -1.912900    -1.436953
 H     2.596506    -2.598111    -1.500824
 C     4.334392     0.233641    -0.811326
 H     4.201224     1.234521    -0.395682
 C     4.707214    -2.300211    -1.886247
 H     4.842919    -3.297770    -2.313381
 C     5.589406    -0.160200    -1.254570
 H     6.428417     0.537088    -1.177030
 C     5.802326    -1.438137    -1.791761
 C     7.170610    -1.856800    -2.242519
 H     7.870326    -1.891337    -1.391739
 H     7.156682    -2.852464    -2.707277
 H     7.586878    -1.145398    -2.972973
 C     1.079302     1.913043    -1.827198
 H     0.763177     1.126986    -2.518727
 C     1.901083     2.582311     0.324312
 H     2.246832     2.350694     1.331518
 C     1.021305     3.243589    -2.222583
 H     0.673437     3.491099    -3.229708
 C     1.835760     3.916890    -0.072861
 H     2.133718     4.699338     0.630970
 C     1.393280     4.274196    -1.348660
 C     1.281090     5.712573    -1.759886
 H     1.928982     6.359024    -1.151008
 H     1.551117     5.852844    -2.816974
 H     0.246493     6.076289    -1.639026
