  86
scf done:    -3351.364469
 C    -0.911997     2.562142    -1.936124
 H    -0.452220     3.035722    -2.811977
 H    -1.977345     2.387044    -2.131604
 C    -0.613905     3.235689    -0.637818
 H     0.021507     4.130006    -0.707972
 H    -1.501743     3.471403    -0.030337
 H    -0.002248     2.545172     0.082892
Co     0.148537     1.201630    -1.029002
 C    -2.404918     0.348457     1.109638
 C    -2.933451    -0.056175    -1.778972
 C    -1.250377    -1.868230    -0.337761
 C     2.382975    -1.255260    -0.181409
 C     3.193184     1.472393     0.398490
 C     1.285636     0.121590     2.079938
 P     1.678460     0.411638     0.295150
 P    -1.563724    -0.056535    -0.525923
 C     1.102720     0.927730    -2.411808
 O     1.703517     0.653484    -3.368818
 H    -1.700949    -0.031058     1.866509
 H    -2.368494     1.444407     1.180845
 C    -3.782370    -0.172259     1.360976
 C    -3.957099    -1.476498     1.842105
 H    -3.073413    -2.067775     2.096579
 C    -4.922921     0.611608     1.080883
 C    -4.805569     2.048658     0.656742
 H    -4.196999     2.175932    -0.251128
 H    -4.330924     2.659130     1.442891
 H    -5.795721     2.480107     0.456054
 C    -5.223094    -2.034551     1.992060
 H    -5.330219    -3.057555     2.360346
 C    -6.188046     0.034722     1.233410
 H    -7.072011     0.637489     1.007028
 C    -6.347430    -1.278667     1.669869
 H    -7.348787    -1.702767     1.773669
 H    -3.443498     0.914641    -1.675352
 H    -2.409122     0.005588    -2.747629
 C    -3.962194    -1.181642    -1.803435
 H    -4.402408    -1.328421    -0.807151
 H    -3.465780    -2.131764    -2.060572
 C    -5.073455    -0.908642    -2.805927
 H    -5.632675     0.001707    -2.535682
 H    -4.674057    -0.761952    -3.822543
 H    -5.793573    -1.740261    -2.843969
 H    -0.573655    -1.987467     0.526339
 H    -2.186346    -2.388802    -0.076450
 C    -0.624035    -2.481964    -1.583865
 H     0.234968    -1.866236    -1.892785
 H    -1.339098    -2.418960    -2.420881
 C    -0.199503    -3.928117    -1.387251
 H     0.556824    -4.019778    -0.590472
 H    -1.054112    -4.562763    -1.102660
 H     0.237149    -4.347705    -2.306231
 H     1.675876    -1.993637     0.225295
 H     2.300378    -1.311001    -1.274142
 C     3.779152    -1.547266     0.276133
 C     4.009203    -2.018351     1.574992
 H     3.153077    -2.226416     2.222193
 C     4.881142    -1.338156    -0.581938
 C     4.698125    -0.930795    -2.017081
 H     4.078482    -0.030351    -2.141962
 H     4.195627    -1.725099    -2.593617
 H     5.668222    -0.739755    -2.495691
 C     5.297397    -2.242970     2.052410
 H     5.447524    -2.610297     3.070349
 C     6.169169    -1.565427    -0.084626
 H     7.023797    -1.399965    -0.746488
 C     6.386622    -2.003333     1.219346
 H     7.405190    -2.170670     1.577291
 H     3.765940     1.195106     1.299759
 H     3.823008     1.192469    -0.460097
 C     2.921586     2.969319     0.340126
 H     2.268179     3.273752     1.175004
 H     2.347853     3.176415    -0.577675
 C     4.198668     3.793480     0.363781
 H     4.775134     3.617687     1.286286
 H     4.851723     3.535685    -0.485355
 H     3.983609     4.871305     0.303830
 H     0.533839    -0.687306     2.100765
 H     2.184535    -0.267212     2.586205
 C     0.752891     1.343156     2.816580
 H    -0.043761     1.812315     2.214808
 H     1.552357     2.097702     2.899264
 C     0.222013     1.011389     4.202369
 H    -0.619112     0.301147     4.147326
 H     1.001263     0.550780     4.830204
 H    -0.138196     1.911634     4.722870
