  86
scf done:    -3351.344912
 C     1.113922     2.890161     0.263099
 H     0.644826     3.760058     0.739606
 H     2.173551     2.832687     0.548486
 C     0.851506     2.759706    -1.193510
 H     0.155163     3.495955    -1.615707
 H     1.755664     2.710876    -1.821444
 H     0.365486     1.719301    -1.457777
Co     0.037396     1.263800     0.196313
 C     2.833692    -0.218885    -1.058779
 C     2.971617     0.509470     1.796922
 C     1.591191    -1.912941     0.981078
 C    -2.489309    -0.993199     0.410974
 C    -3.223891     1.699402    -0.507535
 C    -1.970107    -0.179001    -2.374512
 P    -1.830202     0.429585    -0.610774
 P     1.758292    -0.115240     0.484597
 C    -0.758628     1.617104     1.653095
 O    -1.282596     1.792544     2.676356
 H     2.258574    -0.865700    -1.739693
 H     2.776795     0.788012    -1.492053
 C     4.253880    -0.679026    -0.959793
 C     4.541816    -2.048570    -0.882449
 H     3.721099    -2.766382    -0.949721
 C     5.321844     0.243972    -0.918760
 C     5.100156     1.719927    -1.099349
 H     4.403335     2.141339    -0.358757
 H     4.676606     1.941957    -2.092859
 H     6.046905     2.270469    -1.013897
 C     5.841970    -2.513688    -0.712020
 H     6.034311    -3.587197    -0.646963
 C     6.622787    -0.239811    -0.740898
 H     7.448523     0.476071    -0.699742
 C     6.890472    -1.601375    -0.625104
 H     7.916879    -1.947426    -0.483152
 H     3.526896     1.286232     1.245293
 C     2.267586     1.201437     2.961044
 H     3.018630     1.594891     3.665360
 H     1.639757     2.033795     2.624919
 H     1.619748     0.512826     3.523272
 C     3.993643    -0.496551     2.321077
 H     4.540640    -1.017317     1.525735
 H     4.737007     0.031062     2.940527
 H     3.522277    -1.252705     2.967815
 H     2.612577    -2.285446     1.161384
 C     0.795304    -2.012394     2.279135
 H     0.640189    -3.068214     2.554429
 H     1.303326    -1.522042     3.120156
 H    -0.192788    -1.540021     2.170970
 C     0.953554    -2.772462    -0.097692
 H     1.518870    -2.775426    -1.040737
 H     0.878423    -3.817199     0.244747
 H    -0.059969    -2.422027    -0.327025
 H    -1.854748    -1.850164     0.144106
 H    -2.214353    -0.727999     1.440167
 C    -3.937526    -1.357241     0.309934
 C    -4.387632    -2.126619    -0.771169
 H    -3.659242    -2.496161    -1.497383
 C    -4.868818    -0.925324     1.279063
 C    -4.440697    -0.200392     2.524527
 H    -3.833173     0.694615     2.325952
 H    -3.824909    -0.850872     3.167563
 H    -5.313919     0.112195     3.113088
 C    -5.735985    -2.423847    -0.943660
 H    -6.060420    -3.019351    -1.800193
 C    -6.221758    -1.227836     1.086488
 H    -6.946884    -0.885749     1.830113
 C    -6.662834    -1.956368    -0.015310
 H    -7.726773    -2.172118    -0.137802
 H    -3.506880     1.614055     0.555358
 C    -2.720232     3.124992    -0.713665
 H    -3.509730     3.843880    -0.442088
 H    -1.834757     3.325771    -0.095682
 H    -2.452487     3.318322    -1.764109
 C    -4.466019     1.436350    -1.353650
 H    -4.881265     0.430673    -1.214626
 H    -5.252978     2.157706    -1.080029
 H    -4.262974     1.579650    -2.426241
 H    -3.030665    -0.446356    -2.514532
 C    -1.614159     0.925602    -3.364793
 H    -1.777371     0.572577    -4.395641
 H    -2.215015     1.834136    -3.226758
 H    -0.553165     1.207795    -3.280775
 C    -1.112180    -1.405905    -2.641446
 H    -1.402452    -2.273361    -2.032004
 H    -1.197923    -1.704731    -3.698568
 H    -0.052459    -1.191177    -2.435793
