 100
scf done:    -4182.695874
 C    -0.966456    -2.597945    -2.367774
 H    -0.622243    -3.626397    -2.535253
 H    -2.064574    -2.569381    -2.425412
 C    -0.256669    -1.562561    -3.179965
 H     0.550213    -1.951634    -3.817464
 H    -0.919292    -0.921469    -3.781493
 H     0.285012    -0.764993    -2.521673
Co    -0.041758    -1.580940    -0.996063
 C    -2.934651     0.072163    -1.677381
 C    -2.994624    -1.607528     0.650453
 C    -1.595472     0.871703     0.883301
 C     1.798627    -0.713676     1.652551
 C     3.252778    -0.983636    -0.897308
 C     1.770224     1.378582    -0.412421
 P     1.638041    -0.439069    -0.186136
 P    -1.826042    -0.525486    -0.288216
 C     0.440907    -2.997636    -0.187632
 O     0.687548    -3.957139     0.419495
 H    -2.944300    -0.800147    -2.348221
 H    -2.360009     0.864930    -2.170948
 C    -4.340570     0.495625    -1.400585
 C    -4.671449     1.836694    -1.168050
 H    -3.878422     2.585295    -1.185230
 C    -5.368998    -0.455010    -1.372494
 H    -5.129453    -1.506539    -1.551965
 C    -5.986509     2.215555    -0.913518
 H    -6.223378     3.268831    -0.741091
 C    -6.685018    -0.080337    -1.110078
 H    -7.469939    -0.840648    -1.090938
 C    -7.000899     1.258074    -0.880401
 H    -8.033798     1.555073    -0.682325
 C    -2.827901    -2.989861     0.544265
 H    -1.982656    -3.355978    -0.039140
 C    -4.082904    -1.124944     1.417539
 O    -4.226670     0.204636     1.507470
 C    -5.258131     0.753051     2.274842
 H    -6.249319     0.449135     1.899184
 H    -5.164492     1.841663     2.178577
 H    -5.164677     0.473800     3.339211
 C    -3.698223    -3.889031     1.159110
 H    -3.537400    -4.963626     1.053511
 C    -4.948915    -2.024701     2.049770
 H    -5.784727    -1.653916     2.643017
 C    -4.757243    -3.398245     1.913765
 H    -5.447481    -4.085098     2.410378
 C    -1.454149     0.571118     2.242334
 H    -1.548645    -0.471459     2.559175
 C    -1.444637     2.213242     0.487163
 O    -1.473211     2.467019    -0.840191
 C    -1.323683     3.783659    -1.296073
 H    -2.148379     4.431530    -0.948770
 H    -1.348056     3.736315    -2.392283
 H    -0.360380     4.213045    -0.979948
 C    -1.225414     1.559055     3.197027
 H    -1.125826     1.289102     4.250553
 C    -1.263379     3.217280     1.445030
 H    -1.173226     4.258401     1.136184
 C    -1.152318     2.890200     2.794094
 H    -0.998021     3.684400     3.528553
 H     1.445552    -1.748732     1.765278
 H     1.023773    -0.080638     2.110150
 C     3.122215    -0.565324     2.336234
 C     3.405470     0.517742     3.176183
 H     2.640813     1.278524     3.350804
 C     4.105502    -1.549730     2.168542
 H     3.891947    -2.415327     1.536597
 C     4.642870     0.632513     3.806235
 H     4.840256     1.484832     4.461468
 C     5.345329    -1.435239     2.791558
 H     6.098330    -2.213009     2.642161
 C     5.622362    -0.339918     3.609788
 H     6.592950    -0.252415     4.104257
 C     3.259581    -2.115595    -1.712188
 H     2.302307    -2.616353    -1.880021
 C     4.470897    -0.298203    -0.688298
 O     4.424722     0.804175     0.072948
 C     5.595601     1.505363     0.375464
 H     6.321114     0.869784     0.910173
 H     5.294941     2.330127     1.033238
 H     6.067118     1.921261    -0.532473
 C     4.432502    -2.595917    -2.293741
 H     4.408207    -3.490429    -2.919341
 C     5.650539    -0.775272    -1.270836
 H     6.594203    -0.256467    -1.101459
 C     5.626463    -1.921025    -2.064932
 H     6.558211    -2.281964    -2.508144
 C     1.746919     2.295115     0.632905
 H     1.538424     1.951917     1.645150
 C     1.995284     1.860999    -1.718414
 O     1.955319     0.935308    -2.697823
 C     2.360047     1.268011    -3.994505
 H     1.690210     2.014814    -4.455971
 H     2.317523     0.341052    -4.580081
 H     3.393981     1.653588    -4.008135
 C     2.008568     3.649814     0.419725
 H     1.996081     4.343762     1.262735
 C     2.269133     3.211859    -1.942331
 H     2.471806     3.576853    -2.949591
 C     2.290450     4.099972    -0.864813
 H     2.517179     5.153990    -1.044036
