  92
scf done:    -4872.803816
 C    -0.673668     0.193826     4.174786
 H    -0.169246     0.647277     5.036252
 H    -1.700775     0.570269     4.112880
 C    -0.533559    -1.291583     4.083218
 H     0.023327    -1.753352     4.910657
 H    -1.479279    -1.831560     3.928720
 H     0.093830    -1.622707     3.151986
Co     0.377363    -0.005763     2.542780
 O    -1.756983    -1.226513     0.542161
 C    -2.856946     1.000144     1.832183
 C    -0.980306     1.201777    -0.373905
 O     1.935114    -0.374448    -0.402896
 C     3.453993    -1.064831     1.768139
 C     1.257107    -2.681692     0.666543
 P     1.710379    -0.940687     1.154193
 P    -1.267924     0.271365     1.186404
 C     1.494145     1.144013     3.131100
 O     2.202141     1.984430     3.498472
 C    -2.932092    -1.573789    -0.050190
 C    -3.262967    -1.164279    -1.344896
 H    -2.575643    -0.535257    -1.910338
 C    -3.789447    -2.430963     0.643115
 H    -3.497336    -2.771093     1.638630
 C    -4.476901    -1.543210    -1.907044
 H    -4.756689    -1.200695    -2.904148
 C    -4.998283    -2.824899     0.080066
 H    -5.680221    -3.481412     0.622874
 C    -5.347312    -2.357982    -1.185856
Cl    -6.883515    -2.785803    -1.865057
 H    -2.510397     1.899263     2.367903
 H    -3.201781     0.299447     2.608740
 C    -3.978365     1.341514     0.894654
 C    -5.149525     0.574555     0.873931
 H    -5.248492    -0.269343     1.559370
 C    -3.893737     2.443334     0.031710
 H    -3.014046     3.090881     0.062817
 C    -6.178499     0.855042    -0.020279
 H    -7.069678     0.223142    -0.035190
 C    -4.923472     2.728611    -0.862541
 H    -4.832658     3.589268    -1.529813
 C    -6.063803     1.927792    -0.902958
 H    -6.866707     2.146698    -1.610778
 H    -1.914385     1.187059    -0.956778
 H    -0.246462     0.594209    -0.927999
 C    -0.496977     2.625206    -0.262809
 C    -0.304047     3.354274    -1.443946
 H    -0.494959     2.872100    -2.406435
 C    -0.237233     3.258467     0.956695
 H    -0.349153     2.702098     1.889992
 C     0.144065     4.670425    -1.408952
 H     0.312408     5.211720    -2.342511
 C     0.209225     4.579050     0.995357
 H     0.415327     5.046646     1.961078
 C     0.404656     5.289164    -0.186009
 H     0.765679     6.319834    -0.158575
 C     2.352639     0.831041    -0.857253
 C     2.406445     0.961370    -2.249528
 H     2.132382     0.099313    -2.861325
 C     2.712216     1.905017    -0.041813
 H     2.659777     1.832567     1.042988
 C     2.799248     2.163682    -2.823614
 H     2.834271     2.276832    -3.908373
 C     3.110045     3.108711    -0.618716
 H     3.369916     3.957069     0.014906
 C     3.143645     3.237603    -2.002764
Cl     3.583154     4.757246    -2.714716
 H     3.343634    -1.462014     2.789780
 H     3.796028    -0.024227     1.887589
 C     4.420478    -1.876273     0.966127
 C     4.944177    -1.392440    -0.239965
 H     4.666069    -0.396374    -0.590908
 C     4.807408    -3.150796     1.399255
 H     4.420613    -3.536050     2.347189
 C     5.814238    -2.170500    -0.997956
 H     6.206624    -1.778177    -1.939036
 C     5.682524    -3.929633     0.643461
 H     5.973726    -4.920527     0.999973
 C     6.184266    -3.443187    -0.562576
 H     6.868259    -4.051587    -1.158802
 H     0.214451    -2.794806     0.995080
 H     1.885873    -3.350182     1.275648
 C     1.370884    -3.005669    -0.796147
 C     2.514709    -3.603114    -1.332207
 H     3.344209    -3.872833    -0.676688
 C     0.319257    -2.675921    -1.660435
 H    -0.578479    -2.215688    -1.245994
 C     2.611846    -3.850475    -2.700414
 H     3.517349    -4.315155    -3.098223
 C     0.413918    -2.923348    -3.026692
 H    -0.421199    -2.663069    -3.682185
 C     1.565830    -3.507357    -3.554801
 H     1.643233    -3.702496    -4.627192
