  92
scf done:    -3878.216254
 C    -0.481851    -3.227359    -1.652754
 H    -0.230292    -4.288531    -1.541802
 H    -1.571385    -3.101141    -1.594696
 C     0.154521    -2.539245    -2.817267
 H     0.753029    -3.193746    -3.465921
 H    -0.541338    -1.945656    -3.427938
 H     0.953413    -1.750398    -2.490907
Co     0.700349    -1.948860    -0.769203
 C    -2.062949    -2.078334     1.136010
 O    -0.667623     0.238726     1.081456
 O    -2.122243    -0.408284    -0.981819
 C     2.343879     0.440782     1.103155
 O     3.666507    -1.020432    -0.778280
 O     2.210431     0.845936    -1.549511
 P     2.148215    -0.443237    -0.476535
 P    -0.982081    -1.058861     0.064997
 C     1.576907    -3.183008     0.071557
 O     2.083136    -3.997488     0.712626
 H    -2.880129    -1.448642     1.524017
 H    -2.536007    -2.831428     0.484969
 C    -1.300915    -2.751716     2.269656
 H    -0.742191    -1.989909     2.840394
 H    -0.535362    -3.420653     1.847094
 C    -2.215288    -3.526459     3.205031
 H    -2.963210    -2.866705     3.674364
 H    -2.765699    -4.311460     2.662543
 H    -1.645080    -4.013996     4.010131
 C    -1.576436     1.099806     1.624773
 C    -2.199588     0.818815     2.840431
 H    -1.964899    -0.108020     3.366289
 C    -1.848790     2.298824     0.965044
 H    -1.348691     2.503879     0.018789
 C    -3.116027     1.725505     3.371241
 H    -3.606705     1.491950     4.320128
 C    -2.760313     3.195529     1.511025
 H    -2.969724     4.128537     0.979788
 C    -3.418817     2.925348     2.718600
 C    -4.389476     3.909389     3.304657
 H    -5.031522     3.439933     4.063400
 H    -5.039012     4.344117     2.530077
 H    -3.861214     4.746182     3.791327
 C    -3.474850    -0.605447    -1.022916
 C    -4.346382     0.106139    -0.197389
 H    -3.947097     0.824031     0.519351
 C    -3.992657    -1.501519    -1.960195
 H    -3.302517    -2.036778    -2.615996
 C    -5.719825    -0.098882    -0.305848
 H    -6.390078     0.466866     0.347458
 C    -5.367374    -1.692838    -2.057669
 H    -5.756389    -2.396003    -2.799540
 C    -6.259199    -1.001725    -1.228542
 C    -7.739176    -1.239661    -1.312960
 H    -8.057065    -1.444001    -2.346046
 H    -8.308291    -0.373159    -0.946494
 H    -8.037333    -2.109115    -0.703078
 H     3.280851     1.020165     1.054880
 H     1.505367     1.153804     1.136973
 C     2.302304    -0.477599     2.317050
 H     3.162755    -1.166518     2.290548
 H     1.404389    -1.111239     2.247586
 C     2.288623     0.294066     3.625768
 H     3.181828     0.931230     3.726141
 H     1.403751     0.948029     3.684871
 H     2.263495    -0.385357     4.491349
 C     4.836421    -0.381628    -0.456334
 C     5.646487    -0.947622     0.527658
 H     5.315678    -1.866550     1.016006
 C     5.239673     0.783058    -1.109232
 H     4.596763     1.209664    -1.879305
 C     6.852854    -0.340703     0.862676
 H     7.479648    -0.791256     1.637425
 C     6.448727     1.379087    -0.757681
 H     6.757062     2.294705    -1.270401
 C     7.277445     0.834090     0.229631
 C     8.594621     1.466569     0.575272
 H     9.415670     1.017396    -0.008558
 H     8.840685     1.331058     1.638784
 H     8.593201     2.544926     0.360169
 C     1.192140     1.740348    -1.730848
 C     1.366514     3.056061    -1.303183
 H     2.292715     3.327796    -0.792918
 C     0.014491     1.373932    -2.383854
 H    -0.127767     0.339783    -2.692924
 C     0.369608     4.000200    -1.542256
 H     0.517309     5.029593    -1.204499
 C    -0.975771     2.323893    -2.605229
 H    -1.901811     2.015082    -3.097264
 C    -0.819186     3.654048    -2.194037
 C    -1.908751     4.660217    -2.428105
 H    -2.114083     4.787818    -3.502923
 H    -1.643080     5.644849    -2.018329
 H    -2.852280     4.340117    -1.957128
