 100
scf done:    -4182.848217
 C     0.867318    -3.381236     1.200339
 H     0.928526    -4.361871     0.716037
 H     1.828902    -3.140070     1.673188
 C    -0.339804    -3.152391     2.047096
 H    -1.060234    -3.981093     2.068548
 H    -0.123691    -2.819241     3.072997
 H    -1.002170    -2.265303     1.661072
Co    -0.059361    -1.977131     0.210335
 C     1.668521     0.179016     2.212473
 O     3.048340    -1.146590     0.413246
 O     1.429282     0.681085    -0.496379
 C    -1.372121     0.195702    -2.030210
 O    -3.064641    -1.100464    -0.452135
 O    -1.585651     0.712467     0.699636
 P    -1.487027    -0.554995    -0.367175
 P     1.474523    -0.609674     0.560796
 C    -0.160604    -2.924124    -1.230171
 O    -0.145619    -3.503827    -2.229991
 H     1.681444    -0.685868     2.897777
 H     0.700947     0.683455     2.363848
 C     2.822402     1.098494     2.475236
 C     2.628154     2.482788     2.531448
 H     1.621563     2.888575     2.404530
 C     4.118537     0.597546     2.647589
 H     4.284890    -0.480265     2.602343
 C     3.701132     3.348675     2.723267
 H     3.528721     4.426977     2.746765
 C     5.191966     1.460895     2.849870
 H     6.197026     1.052219     2.981922
 C     4.988960     2.840329     2.882399
 H     5.832688     3.517758     3.034427
 C     3.419011    -2.034505    -0.560685
 C     2.944810    -1.927546    -1.866127
 H     2.260015    -1.117441    -2.123527
 C     4.308579    -3.048543    -0.207037
 H     4.666369    -3.107998     0.822304
 C     3.323734    -2.860749    -2.837242
 C     2.738404    -2.779627    -4.215893
 H     2.764052    -1.750010    -4.604094
 H     3.273883    -3.428119    -4.923228
 H     1.682908    -3.096392    -4.194052
 C     4.708253    -3.961919    -1.176742
 H     5.406107    -4.759675    -0.910970
 C     4.215507    -3.876011    -2.478788
 H     4.525004    -4.609301    -3.227692
 C     2.225874     1.794137    -0.586116
 C     3.614116     1.712682    -0.655161
 H     4.098990     0.738678    -0.594100
 C     1.579527     3.028164    -0.669638
 H     0.490304     3.059200    -0.622733
 C     4.382165     2.876616    -0.766596
 C     5.878950     2.780149    -0.787239
 H     6.255677     2.493373     0.207846
 H     6.220988     2.013175    -1.498486
 H     6.343058     3.737388    -1.062860
 C     2.340415     4.185299    -0.796907
 H     1.841045     5.155174    -0.861983
 C     3.731601     4.113242    -0.836480
 H     4.323102     5.027654    -0.927956
 H    -1.353195    -0.683823    -2.694982
 H    -0.361252     0.629477    -2.044764
 C    -2.414972     1.185489    -2.452812
 C    -2.134272     2.555835    -2.448411
 H    -1.137822     2.898057    -2.159922
 C    -3.691302     0.761793    -2.842149
 H    -3.921956    -0.305536    -2.847095
 C    -3.112048     3.485008    -2.793236
 H    -2.877770     4.551570    -2.768908
 C    -4.666662     1.689150    -3.199110
 H    -5.657514     1.342301    -3.503313
 C    -4.383057     3.054483    -3.168889
 H    -5.151289     3.781862    -3.441938
 C    -3.474435    -2.051454     0.450073
 C    -3.687015    -1.705477     1.782222
 H    -3.524544    -0.671509     2.095796
 C    -3.655156    -3.362400     0.011915
 H    -3.459134    -3.607118    -1.033134
 C    -4.090295    -2.673487     2.710587
 C    -4.305819    -2.293382     4.146608
 H    -4.619842    -3.156472     4.749521
 H    -3.383692    -1.886663     4.591337
 H    -5.078623    -1.514273     4.240241
 C    -4.062158    -4.325232     0.929582
 H    -4.205815    -5.357261     0.601017
 C    -4.276161    -3.986272     2.266350
 H    -4.590336    -4.754372     2.977571
 C    -2.372587     1.836496     0.718712
 C    -3.737343     1.808922     0.441738
 H    -4.207990     0.871789     0.144993
 C    -1.747365     3.026257     1.095738
 H    -0.682082     3.012231     1.330445
 C    -4.491979     2.986119     0.501524
 C    -5.959219     2.943587     0.190588
 H    -6.132283     2.512960    -0.807380
 H    -6.499916     2.315431     0.916414
 H    -6.405836     3.947284     0.213264
 C    -2.495952     4.196255     1.157460
 H    -2.010940     5.132397     1.444646
 C    -3.856796     4.180579     0.855385
 H    -4.436557     5.105800     0.900517
