  60
scf done:    -3259.297645
 C    -0.605489    -3.789476    -0.188409
 H    -0.194910    -4.638871     0.369742
 H    -1.693002    -3.725535    -0.082735
 C    -0.085128    -3.640630    -1.576924
 H     0.638304    -4.408497    -1.885784
 H    -0.864891    -3.533214    -2.344315
 H     0.535352    -2.649504    -1.724427
Co     0.363875    -2.097112    -0.076134
 C    -1.676581     0.617492    -0.892842
 O    -2.804988    -1.716167     0.009684
 O    -1.520968    -0.146363     1.596877
 C     1.816021     0.731602     1.017708
 O     3.308617    -0.847325    -0.475296
 O     1.473916     0.591318    -1.574192
 P     1.707692    -0.483302    -0.342803
 P    -1.381847    -0.900146     0.122718
 C     1.177512    -2.683800     1.311283
 O     1.638468    -3.057825     2.304818
 H    -1.720243     0.236719    -1.925927
 H    -0.738887     1.191718    -0.823995
 C    -2.868120     1.473717    -0.596733
 C    -2.900424     2.303248     0.532588
 H    -2.041640     2.317982     1.206181
 C    -3.982171     1.461843    -1.444630
 H    -3.968067     0.827918    -2.336006
 C    -4.021141     3.080842     0.812030
 H    -4.028474     3.719121     1.699126
 C    -5.104691     2.239333    -1.167249
 H    -5.963012     2.214333    -1.843261
 C    -5.130132     3.049644    -0.033630
 H    -6.008368     3.660957     0.186944
 C    -4.046995    -1.289519     0.532098
 H    -3.931696    -0.441868     1.223768
 H    -4.720649    -0.985551    -0.282450
 H    -4.498630    -2.135848     1.072786
 C    -1.280249    -0.889815     2.773330
 H    -1.697794    -1.907661     2.707316
 H    -0.202626    -0.975845     2.981757
 H    -1.767440    -0.356758     3.602095
 H     2.262651     0.167145     1.851733
 H     0.774615     0.949331     1.301134
 C     2.575784     1.986728     0.716306
 C     1.892853     3.159533     0.377196
 H     0.799366     3.155497     0.352566
 C     3.974963     2.005973     0.738310
 H     4.516391     1.089739     0.983233
 C     2.588429     4.327290     0.073150
 H     2.037813     5.234904    -0.186088
 C     4.672064     3.172478     0.434389
 H     5.764666     3.172006     0.458469
 C     3.981970     4.337608     0.101216
 H     4.529981     5.252952    -0.134868
 C     3.732566    -2.050781    -1.071399
 H     2.979416    -2.845498    -0.929920
 H     3.918140    -1.914665    -2.150355
 H     4.671413    -2.359565    -0.590246
 C     1.231373     0.131877    -2.878422
 H     2.164808    -0.192398    -3.369246
 H     0.515121    -0.709948    -2.886234
 H     0.805167     0.964440    -3.455461
