  88
scf done:    -5415.300855
 C    -1.080651    -1.525151    -2.947530
 H    -0.966064    -2.502453    -3.431829
 H    -2.126151    -1.194738    -3.003212
 C    -0.070755    -0.506675    -3.355393
 H     0.738613    -0.878400    -3.997939
 H    -0.491624     0.407910    -3.800957
 H     0.485988    -0.052648    -2.430735
Co    -0.121718    -1.231509    -1.278954
 C    -1.748139    -0.570988     1.639054
 C    -1.880463     1.581226    -0.223189
 C    -3.442125    -0.768369    -0.599818
 C     2.151942    -1.770742     1.243328
 C     3.098866    -0.469810    -1.133262
 C     1.514841     1.021729     0.714308
 P     1.590789    -0.624386    -0.090544
 P    -1.723930    -0.251967    -0.183721
 C     0.083083    -2.908529    -1.042845
 O     0.124728    -4.048192    -0.828522
 H    -2.658818    -0.113371     2.061735
 H    -0.884584    -0.028353     2.053955
 C    -1.688661    -2.044599     2.003372
 H    -2.484209    -2.589218     1.468096
 H    -0.742580    -2.477785     1.637950
 C    -1.838530    -2.326394     3.501284
 H    -2.845946    -1.981385     3.801858
 C    -1.758776    -3.826232     3.760035
 H    -2.505290    -4.376344     3.166751
 H    -1.928412    -4.062958     4.821747
 H    -0.765100    -4.217477     3.484049
 C    -0.821010    -1.572618     4.351320
 H    -0.938774    -1.817705     5.418083
 H    -0.921366    -0.481052     4.252730
 H     0.209316    -1.843852     4.067384
 C    -1.988465     2.397965     0.907210
 H    -2.041420     1.961231     1.905084
 C    -1.811313     2.198150    -1.481059
 H    -1.726515     1.579290    -2.377539
 C    -2.004790     3.787061     0.794803
 H    -2.054156     4.419445     1.682214
 C    -1.836150     3.580846    -1.612789
 H    -1.777041     4.054387    -2.594189
 C    -1.917411     4.371022    -0.464899
Cl    -1.872608     6.095883    -0.609761
 C    -3.658732    -2.097689    -0.985406
 H    -2.801689    -2.766314    -1.098820
 C    -4.543690     0.088084    -0.492729
 H    -4.398120     1.131354    -0.201862
 C    -4.942701    -2.569846    -1.240159
 H    -5.109968    -3.606262    -1.537664
 C    -5.832703    -0.367284    -0.757340
 H    -6.690896     0.302262    -0.679314
 C    -6.024500    -1.697827    -1.126036
Cl    -7.625379    -2.271838    -1.454263
 H     2.097991    -2.768842     0.777852
 H     1.354111    -1.762492     2.003163
 C     3.527770    -1.541530     1.848857
 H     4.267234    -1.461856     1.036255
 H     3.559690    -0.572643     2.378272
 C     3.986670    -2.646665     2.805242
 H     4.001162    -3.591559     2.230164
 C     5.407370    -2.366248     3.281185
 H     6.100970    -2.253758     2.433464
 H     5.784810    -3.179082     3.920438
 H     5.446731    -1.434374     3.869860
 C     3.041537    -2.835992     3.986007
 H     3.426222    -3.596918     4.682205
 H     2.040612    -3.164268     3.668457
 H     2.925521    -1.896910     4.554074
 C     3.235696    -1.352133    -2.211481
 H     2.426629    -2.058267    -2.418587
 C     4.125288     0.447872    -0.877566
 H     4.039945     1.145790    -0.041588
 C     4.371815    -1.330952    -3.014915
 H     4.479253    -2.020868    -3.853451
 C     5.261600     0.487824    -1.679994
 H     6.060358     1.205190    -1.484786
 C     5.378944    -0.405500    -2.744880
Cl     6.790407    -0.360084    -3.744694
 C     1.425237     1.198894     2.098547
 H     1.488291     0.342784     2.773165
 C     1.418620     2.153545    -0.109900
 H     1.463017     2.038839    -1.196379
 C     1.248117     2.467305     2.650797
 H     1.171757     2.600181     3.731169
 C     1.259926     3.424761     0.424924
 H     1.175319     4.300338    -0.220184
 C     1.168486     3.572707     1.809417
Cl     0.913660     5.146712     2.482354
