 100
scf done:    -3734.558832
 C    -1.183076    -0.824450    -3.175796
 H    -1.045377    -1.688446    -3.837497
 H    -2.244501    -0.547632    -3.129202
 C    -0.242152     0.306113    -3.426274
 H     0.552047     0.103453    -4.157483
 H    -0.727025     1.262497    -3.676769
 H     0.337935     0.610559    -2.456908
Co    -0.161860    -0.789275    -1.519693
 C    -1.674535    -0.768792     1.525670
 C    -2.020336     1.679308     0.112960
 C    -3.464996    -0.651435    -0.643719
 C     2.245384    -1.638619     0.786212
 C     3.015322     0.126229    -1.342326
 C     1.437225     1.159473     0.800671
 P     1.566003    -0.303557    -0.294553
 P    -1.759080    -0.114211    -0.204414
 C     0.146935    -2.463051    -1.607752
 O     0.262795    -3.618878    -1.610356
 H    -2.588767    -0.457539     2.059092
 H    -0.824081    -0.257644     2.003455
 C    -1.517297    -2.277535     1.602841
 H    -2.302669    -2.760798     0.998195
 H    -0.564859    -2.574344     1.133061
 C    -1.589495    -2.843673     3.023944
 H    -2.602042    -2.625674     3.413584
 C    -1.414095    -4.357374     2.992562
 H    -2.151124    -4.832870     2.327189
 H    -1.526574    -4.799260     3.994877
 H    -0.411764    -4.625771     2.618430
 C    -0.583337    -2.199232     3.971784
 H    -0.645434    -2.644553     4.976901
 H    -0.747727    -1.116531     4.080276
 H     0.448462    -2.347778     3.612828
 C    -2.159699     2.254825     1.378578
 H    -2.144076     1.633759     2.274859
 C    -2.042508     2.531955    -1.000493
 H    -1.934191     2.106041    -2.001117
 C    -2.311626     3.633116     1.523965
 H    -2.416665     4.055211     2.527614
 C    -2.198455     3.904254    -0.852857
 H    -2.215902     4.543237    -1.740657
 C    -2.327140     4.484290     0.417143
 C    -2.441076     5.971805     0.578488
 H    -1.454201     6.456128     0.482708
 H    -3.091689     6.414145    -0.190777
 H    -2.845111     6.241262     1.564850
 C    -4.606183     0.098488    -0.341420
 H    -4.503797     1.078815     0.130736
 C    -3.631488    -1.901300    -1.254397
 H    -2.746186    -2.485805    -1.517681
 C    -5.876177    -0.391684    -0.637710
 H    -6.754811     0.213055    -0.394669
 C    -4.903126    -2.390632    -1.535498
 H    -5.007872    -3.372521    -2.006135
 C    -6.049411    -1.643439    -1.237981
 C    -7.416350    -2.157126    -1.584440
 H    -7.657582    -1.952827    -2.641196
 H    -7.485818    -3.245705    -1.441407
 H    -8.194813    -1.679626    -0.972153
 H     2.217788    -2.539355     0.150940
 H     1.487480    -1.809626     1.567178
 C     3.636546    -1.442318     1.367563
 H     4.328453    -1.173100     0.553752
 H     3.644847    -0.584055     2.062658
 C     4.198962    -2.672360     2.086461
 H     4.232963    -3.495685     1.348287
 C     5.625631    -2.399115     2.548761
 H     6.268616    -2.093508     1.708728
 H     6.076341    -3.289959     3.013016
 H     5.646266    -1.587822     3.295760
 C     3.325642    -3.128010     3.249657
 H     3.782436    -3.978604     3.778746
 H     2.327865    -3.450506     2.916930
 H     3.190340    -2.315178     3.983834
 C     3.161745    -0.542769    -2.562882
 H     2.389158    -1.254385    -2.867504
 C     3.998679     1.047290    -0.962353
 H     3.908179     1.580395    -0.013028
 C     4.265861    -0.303113    -3.375707
 H     4.363266    -0.842879    -4.321989
 C     5.094660     1.290168    -1.785400
 H     5.851938     2.013782    -1.470119
 C     5.249365     0.621657    -3.006035
 C     6.416227     0.910931    -3.903855
 H     6.693377     0.030366    -4.501340
 H     6.175352     1.722550    -4.610937
 H     7.298339     1.229697    -3.329866
 C     1.416645     1.090399     2.195538
 H     1.557226     0.135008     2.705493
 C     1.234691     2.410804     0.198081
 H     1.217367     2.488392    -0.892440
 C     1.212054     2.238758     2.963028
 H     1.194990     2.156856     4.053465
 C     1.050500     3.551315     0.964820
 H     0.891395     4.511572     0.467107
 C     1.033773     3.487577     2.365340
 C     0.822324     4.727966     3.181033
 H     1.680415     5.413919     3.091618
 H    -0.067732     5.278159     2.837650
 H     0.689895     4.494961     4.246879
