  90
scf done:    -3652.157195
 C    -1.293531    -1.490521    -3.054636
 H    -0.340088    -1.989679    -3.256879
 H    -2.136481    -2.058069    -3.466238
 C    -1.310708    -0.031065    -3.366484
 H    -0.373789     0.335377    -3.811485
 H    -2.173214     0.307959    -3.956138
 H    -1.362273     0.634906    -2.400160
Co    -1.554680    -0.697711    -1.285335
 C    -2.141378     2.460129     0.018544
 O    -3.961743     0.502819     0.250224
 O    -1.862782     0.531218     1.759030
 C     1.307690     0.261369     0.395894
 O     0.938128    -2.320424     0.137751
 O     1.457362    -1.070475    -2.078016
 P     0.519295    -0.973442    -0.732544
 P    -2.320634     0.626631     0.170401
 C    -2.851571    -1.781067    -1.041085
 O    -3.682245    -2.567859    -0.869579
 H    -2.700435     2.717657    -0.894169
 H    -2.668689     2.902453     0.876988
 C    -0.739413     2.973875    -0.052464
 C    -0.029547     3.272649     1.116363
 H    -0.506394     3.117226     2.086864
 C    -0.105203     3.148607    -1.287152
 H    -0.653741     2.916655    -2.204765
 C     1.277957     3.742359     1.040031
 H     1.829444     3.965714     1.956319
 C     1.208159     3.620878    -1.383156
 C     1.849175     3.840601    -2.722535
 H     1.395870     3.203263    -3.495176
 H     1.729549     4.887516    -3.047739
 H     2.927850     3.628752    -2.693585
 C     1.892586     3.917950    -0.198816
 H     2.919092     4.292173    -0.249269
 C    -4.815332     1.176719     1.176521
 H    -4.203253     1.562257     2.012617
 C    -5.798963     0.154384     1.712342
 H    -5.277781    -0.661640     2.227757
 H    -6.373545    -0.281454     0.881154
 H    -6.501129     0.623487     2.417778
 C    -5.528174     2.321668     0.477990
 H    -4.826089     3.079794     0.105915
 H    -6.100819     1.935560    -0.378980
 H    -6.228600     2.816932     1.167333
 C    -1.468630    -0.714970     2.349967
 H    -0.851922    -1.265276     1.617411
 C    -2.673079    -1.571920     2.682383
 H    -3.253108    -1.811211     1.780280
 H    -3.329039    -1.057685     3.401864
 H    -2.345396    -2.520764     3.133223
 C    -0.636585    -0.371062     3.566659
 H     0.237187     0.237182     3.292143
 H    -1.239262     0.196314     4.292673
 H    -0.273941    -1.286929     4.055830
 H     1.388351     1.163864    -0.227987
 H     0.496259     0.490656     1.102536
 C     2.581039     0.018191     1.148567
 C     2.717732    -1.045105     2.053687
 H     1.889736    -1.738929     2.191396
 C     3.657623     0.898539     0.999592
 H     3.543992     1.757847     0.333236
 C     3.910641    -1.227431     2.745180
 H     4.007523    -2.063078     3.443100
 C     4.866540     0.727790     1.683660
 C     6.003879     1.683081     1.461278
 H     6.474161     1.517765     0.477699
 H     5.659723     2.728624     1.482174
 H     6.785341     1.566989     2.225495
 C     4.982986    -0.355274     2.558201
 H     5.916462    -0.510569     3.106194
 C     0.842002    -3.659730    -0.343928
 H     1.183198    -3.672561    -1.395873
 C    -0.576943    -4.186805    -0.282540
 H    -1.234884    -3.628349    -0.956388
 H    -0.976102    -4.098344     0.740012
 H    -0.598958    -5.248280    -0.572365
 C     1.798830    -4.478859     0.500425
 H     2.811365    -4.052620     0.473175
 H     1.462101    -4.489006     1.548951
 H     1.839816    -5.518342     0.142384
 C     2.844855    -1.057208    -2.406293
 H     2.866667    -1.532508    -3.402710
 C     3.715909    -1.884624    -1.481447
 H     3.381226    -2.930239    -1.458364
 H     3.718717    -1.493958    -0.455568
 H     4.751566    -1.871821    -1.853524
 C     3.322018     0.373688    -2.568686
 H     2.648111     0.922611    -3.241284
 H     3.353826     0.895143    -1.603232
 H     4.335115     0.393741    -2.998090
