 118
scf done:    -4790.846393
 C     0.707490    -3.202818     0.258046
 H    -0.058150    -3.927065    -0.043308
 H     1.721490    -3.556267     0.034094
 C     0.505496    -2.571243     1.571173
 H    -0.420137    -2.851779     2.094697
 H     1.372473    -2.618921     2.246759
 H     0.396272    -1.369354     1.511312
Co     0.326721    -1.327620    -0.120250
 O     2.797639     0.292399     1.272309
 C     3.409806     0.059316    -1.351769
 C     1.445728     1.857754    -0.467850
 O    -2.265715    -0.101785    -1.418135
 C    -2.817467    -1.334203     0.959502
 C    -1.647239     1.376115     0.841183
 P    -1.549138    -0.304306     0.077534
 P     1.959084     0.102712    -0.188811
 C     0.055354    -1.808172    -1.723589
 O    -0.139734    -2.181022    -2.803980
 C     3.515888    -0.696343     1.836039
 C     3.778601    -1.919742     1.212789
 H     3.388064    -2.114324     0.212080
 C     4.013688    -0.455471     3.125297
 H     3.815320     0.513326     3.587263
 C     4.511933    -2.915329     1.869115
 C     4.746198    -4.229661     1.181068
 H     5.169733    -4.080868     0.175422
 H     5.433940    -4.869766     1.751430
 H     3.799452    -4.779799     1.053090
 C     4.747072    -1.440553     3.773493
 H     5.134612    -1.249713     4.777753
 C     4.995645    -2.668590     3.156376
 H     5.572609    -3.437362     3.676492
 C     4.328274     1.129968    -1.406069
 O     4.186590     2.087583    -0.477911
 C     4.926884     3.267408    -0.567078
 H     4.564735     3.919343     0.238097
 H     6.006913     3.089108    -0.421736
 H     4.772125     3.777336    -1.533705
 C     3.615308    -1.017322    -2.237591
 O     2.824157    -2.089928    -2.073098
 C     2.896983    -3.166850    -2.961712
 H     2.118847    -3.873721    -2.649041
 H     3.882081    -3.664499    -2.920552
 H     2.690088    -2.852967    -3.998584
 C     4.623305    -0.979963    -3.210663
 H     4.759390    -1.809700    -3.902520
 C     5.339962     1.174285    -2.374837
 H     6.032790     2.013519    -2.419072
 C     5.464522     0.123224    -3.274154
 H     6.251519     0.155152    -4.031750
 C     1.528120     2.956069     0.411700
 O     2.064510     2.755842     1.632169
 C     2.277728     3.844936     2.475286
 H     2.766312     3.450233     3.376518
 H     2.941691     4.600015     2.016437
 H     1.333631     4.336835     2.767837
 C     0.852868     2.071252    -1.727033
 O     0.809099     0.993679    -2.533118
 C    -0.010178     1.011052    -3.672812
 H    -0.002396    -0.011267    -4.067880
 H     0.379101     1.703166    -4.439682
 H    -1.044339     1.282678    -3.406819
 C     0.378465     3.327493    -2.120699
 H    -0.072491     3.467132    -3.101985
 C     1.073578     4.219748     0.013087
 H     1.136986     5.066345     0.694349
 C     0.506022     4.394551    -1.243334
 H     0.150858     5.385087    -1.538646
 C    -3.584979    -0.158251    -1.715889
 C    -4.588278     0.282427    -0.852303
 H    -4.322231     0.703538     0.118808
 C    -3.918198    -0.685767    -2.967442
 H    -3.110148    -1.037267    -3.611693
 C    -5.934948     0.187835    -1.219394
 C    -6.997118     0.628653    -0.253067
 H    -6.791152     1.637802     0.136904
 H    -7.992111     0.639219    -0.720161
 H    -7.039429    -0.048916     0.615745
 C    -5.254675    -0.763325    -3.341667
 H    -5.518335    -1.173144    -4.320183
 C    -6.261063    -0.334436    -2.474547
 H    -7.309860    -0.408631    -2.773617
 C    -3.498500    -1.021247     2.153844
 O    -3.465655     0.259653     2.559302
 C    -3.949719     0.618573     3.819001
 H    -3.703558     1.680813     3.947902
 H    -5.044112     0.490375     3.893874
 H    -3.465779     0.036440     4.622556
 C    -3.023893    -2.627374     0.422020
 O    -2.485820    -2.844460    -0.784884
 C    -2.641963    -4.075071    -1.430201
 H    -2.078664    -3.995001    -2.367849
 H    -3.703057    -4.279600    -1.654287
 H    -2.228710    -4.906130    -0.832431
 C    -3.770737    -3.596799     1.100654
 H    -3.909759    -4.589214     0.674385
 C    -4.230418    -1.993346     2.850308
 H    -4.732535    -1.743406     3.783955
 C    -4.347844    -3.272567     2.322066
 H    -4.925762    -4.026504     2.861956
 C    -1.064253     1.493480     2.116553
 O    -0.596403     0.345111     2.649894
 C     0.341888     0.405989     3.694447
 H     0.725340    -0.612867     3.831421
 H     1.179889     1.066621     3.424204
 H    -0.121870     0.739537     4.639092
 C    -2.148510     2.550667     0.244823
 O    -2.629116     2.459614    -1.006811
 C    -3.249086     3.558617    -1.602871
 H    -3.609558     3.214056    -2.580686
 H    -2.543834     4.395057    -1.751023
 H    -4.111931     3.913489    -1.012039
 C    -2.143536     3.765880     0.945645
 H    -2.546155     4.666086     0.484509
 C    -1.028473     2.705949     2.807962
 H    -0.583734     2.765213     3.800637
 C    -1.590547     3.831824     2.216482
 H    -1.584619     4.784984     2.751323
