  74
scf done:    -3194.235447
 C    -1.051458    -3.776551    -0.164510
 H    -0.647948    -4.732215     0.191761
 H    -2.118353    -3.713213     0.082292
 C    -0.712536    -3.451752    -1.581716
 H    -0.110849    -4.208492    -2.105396
 H    -1.577309    -3.184006    -2.208802
 H    -0.048269    -2.489370    -1.665567
Co     0.092456    -2.215137     0.056748
 C    -2.187336     0.081176    -1.102366
 C    -3.079549    -1.526757     1.179938
 C    -1.182031     0.604811     1.557873
 C     2.432561     0.041647     1.057077
 C     3.238715    -1.782651    -1.004891
 C     1.476619     0.422820    -1.703553
 P     1.741236    -0.882294    -0.406533
 P    -1.542432    -0.808447     0.420954
 C     0.956824    -2.965884     1.315779
 O     1.499803    -3.431013     2.231486
 H    -1.352878     0.725426    -1.419376
 H    -2.275018    -0.710011    -1.863462
 C    -3.460914     0.854729    -1.002311
 C    -4.682578     0.264564    -1.347708
 H    -4.695710    -0.754227    -1.744438
 C    -3.472160     2.168746    -0.516279
 H    -2.521642     2.650306    -0.267653
 C    -5.876306     0.959439    -1.172678
 H    -6.824798     0.484703    -1.435963
 C    -4.660056     2.881846    -0.333717
 C    -4.640077     4.295943     0.170712
 H    -5.489541     4.495964     0.840409
 H    -3.712886     4.516815     0.718631
 H    -4.708919     5.013141    -0.664245
 C    -5.868882     2.253871    -0.659213
 H    -6.811221     2.789992    -0.517235
 H    -2.707371    -2.329876     1.835964
 C    -4.043612    -0.623864     1.936430
 H    -4.431133     0.196807     1.318561
 H    -3.574004    -0.180748     2.826853
 H    -3.601008    -2.044139     0.356937
 H    -4.908442    -1.208645     2.287805
 H    -2.071780     1.247460     1.651292
 C    -0.700022     0.139943     2.924551
 H     0.136618    -0.568251     2.834885
 H    -1.497075    -0.382502     3.474385
 H    -0.409100     1.213099     1.057169
 H    -0.374097     0.989847     3.544107
 H     1.564637     0.473775     1.570742
 H     2.822266    -0.747457     1.719794
 C     3.453763     1.097928     0.782161
 C     4.810920     0.787179     0.638217
 H     5.149480    -0.240691     0.788752
 C     3.054986     2.430671     0.618440
 H     1.998823     2.686727     0.750911
 C     5.726942     1.780954     0.301359
 H     6.783439     1.527404     0.183868
 C     3.959357     3.441242     0.282433
 C     3.506366     4.864640     0.132421
 H     4.019500     5.364006    -0.702806
 H     2.423186     4.927904    -0.044230
 H     3.726991     5.446000     1.043107
 C     5.305792     3.094983     0.113583
 H     6.031925     3.866611    -0.156537
 H     3.591152    -2.358666    -0.133268
 C     2.943155    -2.723801    -2.160687
 H     2.547564    -2.188648    -3.038941
 H     2.194267    -3.470280    -1.859650
 H     4.030413    -1.061610    -1.262037
 H     3.851614    -3.256868    -2.480027
 H     0.963517     1.251651    -1.185744
 C     2.669338     0.941136    -2.494525
 H     3.128055     0.144785    -3.098966
 H     3.449018     1.365803    -1.847907
 H     0.725118    -0.004572    -2.387039
 H     2.348038     1.732154    -3.190265
