 104
scf done:    -4035.213394
 C     0.914546    -3.213973     1.397338
 H     0.875841    -4.248393     1.033392
 H     1.888817    -3.024921     1.870405
 C    -0.266454    -2.793437     2.207924
 H    -1.063597    -3.544410     2.297359
 H    -0.018401    -2.400837     3.206156
 H    -0.815182    -1.874168     1.736820
Co     0.123296    -1.845195     0.256037
 C     2.127938     0.094099     2.303349
 C     3.438521    -1.185469     0.140641
 C     1.907722     1.050193    -0.416021
 C    -1.438896    -0.022463    -2.195933
 C    -3.134751    -1.344505    -0.253885
 C    -1.740950     1.024304     0.471997
 P    -1.488573    -0.547920    -0.430780
 P     1.787184    -0.489149     0.579186
 C     0.144084    -2.821477    -1.146322
 O     0.275318    -3.430444    -2.126865
 H     2.992643     0.779405     2.312111
 H     2.457022    -0.815675     2.831400
 C     0.929284     0.716644     3.006238
 H     0.536459     1.560118     2.414928
 H     0.104289    -0.014593     3.032259
 C     1.223007     1.201233     4.429104
 H     2.062328     1.920873     4.366633
 C     0.021255     1.936637     5.010493
 H    -0.286530     2.785654     4.381980
 H     0.238302     2.320665     6.019634
 H    -0.845661     1.260135     5.091202
 C     1.653537     0.063240     5.348566
 H     1.844425     0.428207     6.369695
 H     2.571630    -0.432283     4.999612
 H     0.862662    -0.703691     5.412757
 C     4.609655    -0.423799     0.293151
 H     4.550146     0.599011     0.675347
 C     3.555979    -2.465559    -0.397575
 H     2.653915    -3.061797    -0.542077
 C     5.848499    -0.933790    -0.056283
 H     6.761478    -0.346369     0.059233
 C     4.796222    -2.993047    -0.761657
 H     4.841948    -3.997695    -1.182658
 C     5.953293    -2.229249    -0.586466
 O     7.196678    -2.643823    -0.901555
 C     7.361027    -3.922306    -1.446654
 H     6.823179    -4.033267    -2.404862
 H     8.435857    -4.052951    -1.626135
 H     7.016242    -4.711707    -0.755404
 C     1.908869     0.897816    -1.814160
 H     1.853578    -0.108720    -2.239667
 C     2.010859     2.341564     0.097493
 H     2.026605     2.506687     1.176113
 C     1.986433     1.991873    -2.658346
 H     1.999222     1.874915    -3.743697
 C     2.076975     3.459271    -0.740511
 H     2.146244     4.452719    -0.296146
 C     2.053982     3.290012    -2.126969
 O     2.093613     4.296613    -3.023242
 C     2.139291     5.613200    -2.553864
 H     3.047729     5.806686    -1.956176
 H     2.151538     6.263842    -3.437452
 H     1.253808     5.861264    -1.941036
 H    -1.240318    -0.946189    -2.763375
 H    -0.523309     0.581825    -2.286684
 C    -2.653775     0.706626    -2.748770
 H    -3.493892    -0.002978    -2.815730
 H    -2.978161     1.496335    -2.047545
 C    -2.423580     1.349131    -4.120581
 H    -1.946799     0.590969    -4.770101
 C    -3.753482     1.741367    -4.754021
 H    -4.415073     0.869726    -4.876162
 H    -3.608775     2.198146    -5.745516
 H    -4.283273     2.475792    -4.124121
 C    -1.492180     2.553865    -4.033610
 H    -1.297449     2.982732    -5.028765
 H    -0.517550     2.303114    -3.589959
 H    -1.943764     3.346127    -3.412551
 C    -4.340574    -0.621009    -0.243535
 H    -4.322633     0.469224    -0.304892
 C    -3.202384    -2.734248    -0.142494
 H    -2.267287    -3.300851    -0.133073
 C    -5.560232    -1.268285    -0.138221
 H    -6.500095    -0.713020    -0.126869
 C    -4.423331    -3.401230    -0.040317
 H    -4.430521    -4.488272     0.042529
 C    -5.613831    -2.667637    -0.039499
 O    -6.842506    -3.208979     0.058365
 C    -6.960859    -4.600497     0.161407
 H    -6.462347    -4.989057     1.066951
 H    -8.033871    -4.821301     0.224966
 H    -6.542096    -5.114686    -0.721517
 C    -2.372508     1.011343     1.727716
 H    -2.796529     0.078789     2.110091
 C    -1.214965     2.233704     0.017177
 H    -0.711433     2.291330    -0.949411
 C    -2.470050     2.158842     2.494740
 H    -2.958146     2.151308     3.470732
 C    -1.293443     3.396951     0.785633
 H    -0.853300     4.314967     0.396071
 C    -1.914846     3.362548     2.035875
 O    -2.014397     4.419658     2.869187
 C    -1.455057     5.639930     2.474230
 H    -1.925257     6.028758     1.553702
 H    -1.635334     6.349429     3.291691
 H    -0.366141     5.556706     2.307317
