  62
scf done:    -3409.626548
 C     0.104839    -3.546931    -0.320460
 H    -0.690802    -4.298774    -0.386597
 H     0.837238    -3.667304    -1.125160
 C     0.687890    -3.365479     1.041994
 H     0.265611    -4.021585     1.816172
 H     1.786167    -3.407348     1.057508
 H     0.498489    -2.294447     1.479759
Co    -0.430071    -1.721761     0.108232
 C     2.081507     0.590589    -0.679444
 O     2.150754    -1.885248    -1.744698
 O     0.462697    -0.130591    -2.555188
 C    -1.278518     1.576957     0.405868
 O    -2.229257    -0.043433     2.242701
 O     0.255952     0.447761     2.302456
 P    -0.924264    -0.005988     1.237163
 P     1.028474    -0.825986    -1.162904
 C    -2.003775    -2.104585    -0.430748
 O    -3.030678    -2.395960    -0.884594
 C     2.106141     1.799684    -1.373154
 H     1.519385     1.878825    -2.289494
 C     2.813637     0.474459     0.518738
 O     2.793390    -0.737472     1.102510
 C     3.251690    -0.872911     2.418164
 H     4.340713    -0.707411     2.492156
 H     3.030329    -1.904051     2.721291
 H     2.724300    -0.181301     3.094834
 C     2.831868     2.889657    -0.891972
 H     2.840669     3.830401    -1.446413
 C     3.512831     1.573818     1.025614
 H     4.064130     1.498020     1.963145
 C     3.519316     2.773889     0.312456
 H     4.076911     3.625566     0.710526
 C     3.180281    -1.474248    -2.610710
 H     2.779628    -0.934906    -3.484833
 H     3.903540    -0.818658    -2.096288
 H     3.701812    -2.378422    -2.955827
 C    -0.743363    -0.580039    -3.127827
 H    -0.753435    -1.673227    -3.266131
 H    -1.608504    -0.305512    -2.504825
 H    -0.834353    -0.094037    -4.109775
 C    -0.383287     2.644452     0.438529
 H     0.540008     2.545170     1.012678
 C    -2.442699     1.683387    -0.382180
 O    -3.240379     0.600197    -0.397747
 C    -4.354336     0.563544    -1.246918
 H    -5.118610     1.300624    -0.945549
 H    -4.764825    -0.449997    -1.167942
 H    -4.068333     0.749736    -2.296748
 C    -0.637991     3.817844    -0.272042
 H     0.077392     4.641558    -0.236604
 C    -2.701014     2.854625    -1.098387
 H    -3.601913     2.946963    -1.705304
 C    -1.796696     3.916211    -1.033867
 H    -2.007693     4.828885    -1.596779
 C    -2.916405    -1.238199     2.528398
 H    -2.254156    -2.117586     2.474082
 H    -3.329327    -1.152904     3.544411
 H    -3.741008    -1.387641     1.813659
 C    -0.030016     1.282412     3.404788
 H    -0.659439     2.142488     3.124967
 H    -0.547212     0.722214     4.199238
 H     0.930826     1.654951     3.789153
