 104
scf done:    -4035.348722
 C    -1.904262    -0.388362    -2.905674
 H    -2.111382    -1.221233    -3.586552
 H    -2.850538    -0.013865    -2.494129
 C    -0.986846     0.665104    -3.437849
 H    -0.580381     0.456511    -4.436207
 H    -1.401837     1.683634    -3.410788
 H    -0.032402     0.801268    -2.776723
Co    -0.342793    -0.580207    -1.743667
 C    -2.738320     1.141643     0.047026
 O    -2.400234    -1.465672     0.551570
 O    -0.609475     0.051650     1.349694
 C     1.921518    -1.710527     0.445248
 O     2.788226    -0.513917    -1.894063
 O     1.971763     0.896250     0.094943
 P     1.531610    -0.437831    -0.798042
 P    -1.482679    -0.186367    -0.048957
 C    -0.052498    -2.198569    -2.270877
 O     0.063968    -3.319841    -2.525442
 H    -3.157497     1.158052     1.066553
 H    -3.551164     0.822296    -0.624166
 C    -2.188180     2.499218    -0.364526
 H    -1.494525     2.860391     0.410611
 H    -1.564307     2.391582    -1.269059
 C    -3.260308     3.561765    -0.617780
 H    -3.916650     3.592138     0.272566
 C    -2.617718     4.934000    -0.775679
 H    -2.029410     5.205072     0.114294
 H    -3.373663     5.717896    -0.938563
 H    -1.929514     4.943615    -1.636748
 C    -4.124225     3.227210    -1.829009
 H    -4.899138     3.992734    -1.988690
 H    -4.637857     2.259512    -1.724643
 H    -3.509307     3.180396    -2.743743
 C    -3.409163    -2.046105    -0.165407
 C    -3.141469    -3.091009    -1.051650
 H    -2.115833    -3.434447    -1.182254
 C    -4.724491    -1.621453     0.024233
 H    -4.927327    -0.826540     0.744336
 C    -4.185601    -3.683387    -1.753721
 H    -3.961127    -4.499879    -2.445999
 C    -5.759941    -2.226401    -0.685546
 H    -6.787131    -1.887455    -0.524267
 C    -5.511735    -3.260460    -1.593477
 C    -6.622145    -3.895223    -2.379934
 H    -6.583733    -3.591243    -3.439152
 H    -7.608531    -3.608161    -1.988827
 H    -6.554641    -4.993756    -2.357351
 C    -1.134653     0.196274     2.606224
 C    -1.509441    -0.923211     3.351804
 H    -1.430317    -1.911140     2.898161
 C    -1.242941     1.468749     3.163303
 H    -0.944757     2.335034     2.570503
 C    -1.985132    -0.757361     4.647435
 H    -2.276309    -1.640860     5.222756
 C    -1.722719     1.617991     4.463649
 H    -1.802891     2.621323     4.891067
 C    -2.101534     0.512260     5.230269
 C    -2.606578     0.668226     6.635566
 H    -1.904035     0.230011     7.363073
 H    -3.572951     0.158541     6.773759
 H    -2.742287     1.726408     6.899764
 H     2.215248    -2.601910    -0.135913
 H     0.937065    -1.937651     0.880584
 C     2.932344    -1.388653     1.535684
 H     3.899503    -1.119674     1.085175
 H     2.590136    -0.496289     2.084624
 C     3.151016    -2.537987     2.522445
 H     3.459135    -3.425887     1.937911
 C     4.289303    -2.190913     3.475147
 H     5.216253    -1.966291     2.924533
 H     4.498916    -3.017621     4.171698
 H     4.035930    -1.302871     4.078031
 C     1.883661    -2.894385     3.292380
 H     2.073755    -3.701774     4.016508
 H     1.074669    -3.235003     2.628650
 H     1.506350    -2.021942     3.851874
 C     4.095980    -0.678507    -1.513650
 C     4.670309    -1.945908    -1.594165
 H     4.069703    -2.776033    -1.971722
 C     4.848553     0.402499    -1.054873
 H     4.392075     1.391965    -1.001443
 C     5.986955    -2.134042    -1.182814
 H     6.426110    -3.133983    -1.238527
 C     6.163689     0.197488    -0.648436
 H     6.743662     1.047263    -0.277676
 C     6.756538    -1.070582    -0.696365
 C     8.183048    -1.273840    -0.274391
 H     8.362824    -2.307723     0.053901
 H     8.458883    -0.600978     0.550782
 H     8.876361    -1.069310    -1.107540
 C     1.658684     2.175484    -0.240512
 C     1.670907     2.633764    -1.559325
 H     1.943858     1.953223    -2.368219
 C     1.358498     3.058681     0.797753
 H     1.362117     2.677993     1.820449
 C     1.359064     3.966190    -1.826483
 H     1.367277     4.313048    -2.863622
 C     1.066452     4.387766     0.513329
 H     0.835476     5.070665     1.336096
 C     1.056405     4.869312    -0.803023
 C     0.775868     6.314426    -1.096847
 H     0.405562     6.453000    -2.122806
 H     1.688682     6.924582    -0.992061
 H     0.025983     6.729150    -0.407397
