  90
scf done:    -3803.476268
 C    -2.150024    -1.255842    -2.811114
 H    -2.244651    -2.245342    -3.275665
 H    -3.143184    -0.793250    -2.718362
 C    -1.110443    -0.381396    -3.424905
 H    -0.491022    -0.861923    -4.194039
 H    -1.488934     0.578010    -3.810515
 H    -0.330939    -0.011884    -2.635568
Co    -0.886110    -1.058857    -1.339890
 C    -3.239226     1.438977    -0.338746
 C    -3.872555    -1.226614     0.217111
 C    -1.941942    -0.061357     1.791920
 C     1.427449    -1.370007     1.151617
 C     2.467639    -1.162850    -1.550387
 C     1.519359     1.189907    -0.222299
 P     1.079208    -0.572191    -0.496642
 P    -2.351976    -0.176528    -0.000469
 C    -0.715262    -2.741978    -1.071874
 O    -0.686710    -3.863006    -0.775559
 H    -3.802998     1.213394    -1.260031
 H    -3.990501     1.609262     0.445941
 C    -2.412725     2.675038    -0.546824
 C    -2.594484     3.805474     0.258789
 H    -3.323329     3.778139     1.074105
 C    -1.493599     2.753228    -1.597143
 H    -1.336412     1.871701    -2.217087
 C    -1.872695     4.971765     0.013380
 H    -2.022119     5.846512     0.651359
 C    -0.784396     3.922572    -1.879571
 C     0.115027     3.993871    -3.078407
 H     0.575407     3.019122    -3.292831
 H    -0.454617     4.296789    -3.973239
 H     0.921234     4.727246    -2.936805
 C    -0.977450     5.033129    -1.050566
 H    -0.423784     5.955530    -1.246131
 C    -4.052025    -2.410626    -0.501134
 C    -4.850315    -0.856553     1.153033
 C    -6.160835    -2.810054     0.611678
 C    -5.986495    -1.635836     1.345620
 C    -5.188541    -3.196788    -0.305944
 H    -3.287144    -2.723043    -1.210948
 H    -5.307572    -4.121763    -0.875427
 H    -7.050338    -3.426197     0.764618
 H    -6.735826    -1.330583     2.080212
 H    -4.713022     0.041411     1.761473
 C    -1.880913     1.133883     2.516118
 C    -1.664496    -1.265807     2.457160
 C    -1.253632    -0.072384     4.517282
 C    -1.326520    -1.272053     3.806614
 C    -1.534067     1.127678     3.868725
 H    -2.081788     2.084585     2.021831
 H    -1.485472     2.072017     4.416838
 H    -0.983167    -0.076316     5.575752
 H    -1.113891    -2.219808     4.306972
 H    -1.717445    -2.208700     1.905048
 H     0.741907    -0.885305     1.860710
 H     1.068730    -2.402482     1.028255
 C     2.841092    -1.345145     1.634516
 C     3.687114    -2.434911     1.396658
 H     3.294827    -3.319748     0.889038
 C     3.364996    -0.217663     2.276646
 H     2.711757     0.635990     2.471656
 C     5.024858    -2.381457     1.775990
 H     5.679459    -3.233833     1.578536
 C     4.709111    -0.142822     2.654859
 C     5.234353     1.080918     3.348726
 H     4.759933     1.994493     2.960685
 H     5.027449     1.039982     4.431308
 H     6.322588     1.179179     3.226395
 C     5.536622    -1.240412     2.390468
 H     6.591959    -1.200564     2.674457
 C     2.180825    -1.994215    -2.638204
 C     3.806643    -0.835243    -1.282830
 C     4.529745    -2.167863    -3.165351
 C     4.827478    -1.335993    -2.085501
 C     3.204441    -2.495392    -3.441374
 H     1.137204    -2.247195    -2.839343
 H     2.962108    -3.145067    -4.285794
 H     5.334314    -2.560223    -3.792416
 H     5.864763    -1.077900    -1.859407
 H     4.056619    -0.184626    -0.442844
 C     0.989772     1.858713     0.889236
 C     2.301569     1.915091    -1.127549
 C     2.061483     3.912606     0.214103
 C     2.579941     3.263129    -0.902509
 C     1.255896     3.205729     1.106525
 H     0.357039     1.323899     1.597986
 H     0.823770     3.706925     1.975674
 H     2.274231     4.970500     0.384398
 H     3.204921     3.808740    -1.613692
 H     2.711467     1.423611    -2.012213
