  86
scf done:    -3723.899494
 C    -0.949485    -1.810558    -2.723037
 H    -0.865807    -2.840824    -3.090049
 H    -2.008129    -1.521767    -2.663713
 C    -0.064323    -0.828751    -3.417535
 H     0.548333    -1.257198    -4.223063
 H    -0.582964     0.071849    -3.777364
 H     0.742600    -0.383843    -2.708259
Co     0.251499    -1.280297    -1.282111
 C    -2.318368     0.891041    -0.890862
 O    -2.683327    -1.604306    -0.058252
 O    -1.130103    -0.136153     1.354943
 C     1.834611     0.407302     1.305002
 O     3.298614    -0.990331    -0.536561
 O     2.132469     1.121015    -1.365590
 P     1.856231    -0.201622    -0.426379
 P    -1.413870    -0.565890    -0.211992
 C     0.859182    -2.859262    -0.940725
 O     1.199317    -3.910816    -0.597970
 C    -1.488004     1.768069    -1.595655
 H    -0.429069     1.507462    -1.684185
 C    -3.681501     1.234063    -0.743403
 O    -4.458536     0.422900    -0.003865
 C    -5.819344     0.705492     0.138250
 H    -5.991958     1.668968     0.650832
 H    -6.241334    -0.102571     0.749548
 H    -6.339908     0.723196    -0.835282
 C    -1.965418     2.950598    -2.159507
 H    -1.288613     3.612185    -2.704560
 C    -4.169403     2.410545    -1.328797
 H    -5.221562     2.678097    -1.231309
 C    -3.314667     3.259502    -2.030596
 H    -3.719002     4.172243    -2.475838
 C    -2.492484    -2.915428     0.474263
 H    -1.495099    -2.971564     0.949230
 C    -2.567860    -3.945572    -0.634569
 H    -1.757993    -3.796738    -1.357003
 H    -3.530897    -3.860493    -1.161577
 H    -2.482118    -4.961326    -0.220047
 C    -3.566253    -3.139948     1.523204
 H    -3.495649    -2.404672     2.335779
 H    -4.561467    -3.045231     1.061767
 H    -3.479201    -4.146782     1.958645
 C    -2.156084     0.177247     2.298420
 H    -3.111421    -0.220050     1.918742
 C    -2.280980     1.680877     2.462363
 H    -2.461077     2.170572     1.495658
 H    -1.359729     2.091444     2.900855
 H    -3.119105     1.922769     3.134030
 C    -1.788137    -0.510787     3.597717
 H    -1.705628    -1.597474     3.452946
 H    -0.813838    -0.143164     3.952752
 H    -2.545561    -0.317062     4.372769
 C     2.119868    -0.496796     2.330429
 H     2.376141    -1.526370     2.074000
 C     1.376352     1.693867     1.660679
 O     0.943816     2.486647     0.667064
 C     0.484976     3.778671     0.945811
 H    -0.366923     3.769890     1.644992
 H     0.146445     4.196733    -0.010561
 H     1.286331     4.416530     1.359547
 C     2.077633    -0.126322     3.673125
 H     2.318001    -0.853110     4.451284
 C     1.370251     2.084484     3.004551
 H     1.062934     3.093107     3.281348
 C     1.728506     1.179069     4.001623
 H     1.709292     1.499382     5.046213
 C     4.424218    -1.178843     0.315727
 H     4.314117    -0.550469     1.216387
 C     5.685036    -0.765131    -0.420191
 H     5.697534     0.311927    -0.633888
 H     5.763988    -1.312198    -1.371863
 H     6.571616    -0.998729     0.188266
 C     4.466740    -2.644201     0.711887
 H     3.522202    -2.963845     1.173867
 H     4.613398    -3.269079    -0.181697
 H     5.288687    -2.837194     1.417557
 C     3.382755     1.742738    -1.636311
 H     4.098287     0.948459    -1.908981
 C     3.924628     2.509059    -0.443412
 H     4.044794     1.860256     0.436220
 H     3.246247     3.328685    -0.168290
 H     4.909279     2.936757    -0.686969
 C     3.153587     2.631911    -2.841267
 H     2.763217     2.042194    -3.682807
 H     2.419120     3.415969    -2.600242
 H     4.091393     3.114537    -3.154380
