 112
scf done:    -3591.891827
 C    -1.192210     0.914106    -3.088361
 H    -0.964369     0.529258    -4.089823
 H    -2.276830     1.072809    -3.000302
 C    -0.362616     2.081907    -2.666805
 H     0.403923     2.394335    -3.389733
 H    -0.940047     2.963238    -2.348747
 H     0.257420     1.847885    -1.702955
Co    -0.178341     0.152367    -1.605659
 C    -2.724814     1.839027    -0.083987
 C    -3.410127    -0.712813    -1.117513
 C    -1.885508    -0.474705     1.459870
 C     1.609550    -1.853441     0.419887
 C     3.154589    -0.012190    -1.258267
 C     1.691492     0.984908     1.198445
 P     1.556428    -0.136854    -0.288337
 P    -1.962990     0.160794    -0.305206
 C     0.272061    -1.201351    -2.534645
 O     0.510348    -2.171692    -3.130157
 H    -3.696199     1.764846     0.431427
 H    -2.944470     2.180394    -1.108760
 C    -1.827887     2.843665     0.623605
 H    -1.586663     2.475941     1.636037
 H    -0.861431     2.903671     0.095876
 C    -2.425818     4.248422     0.750541
 H    -3.415002     4.142082     1.235321
 C    -1.559968     5.126084     1.646546
 H    -1.428850     4.680352     2.645167
 H    -2.003085     6.125182     1.779995
 H    -0.557071     5.263057     1.209580
 C    -2.638788     4.912268    -0.605546
 H    -3.090100     5.910079    -0.492380
 H    -3.300528     4.324641    -1.259014
 H    -1.677260     5.041479    -1.130714
 H    -3.607903    -0.027465    -1.962917
 C    -4.715365    -0.830774    -0.328874
 H    -5.008060     0.138164     0.104777
 H    -4.575721    -1.524069     0.517889
 C    -5.843393    -1.362423    -1.211081
 H    -6.770007    -1.458919    -0.621292
 H    -6.056116    -0.624887    -2.006286
 C    -5.473680    -2.696243    -1.849187
 H    -6.284683    -3.044889    -2.509409
 H    -5.370361    -3.458921    -1.055443
 C    -4.161053    -2.593751    -2.617102
 H    -4.296361    -1.917322    -3.480626
 H    -3.879695    -3.574183    -3.034570
 C    -3.033420    -2.057719    -1.741505
 H    -2.813067    -2.791117    -0.947379
 H    -2.109699    -1.945181    -2.324011
 H    -0.903461    -0.096444     1.798880
 C    -1.804561    -2.001693     1.515761
 H    -1.077804    -2.374425     0.778669
 H    -2.779603    -2.427569     1.226335
 C    -1.457329    -2.483977     2.920170
 H    -1.417107    -3.585089     2.945911
 H    -0.444472    -2.129696     3.186826
 C    -2.452242    -1.961576     3.949840
 H    -2.162252    -2.281028     4.964000
 H    -3.442841    -2.410538     3.753862
 C    -2.571269    -0.443905     3.880618
 H    -1.610878     0.010557     4.187764
 H    -3.326884    -0.083591     4.597819
 C    -2.916961     0.032490     2.471438
 H    -3.919879    -0.333935     2.201536
 H    -2.975435     1.130592     2.460727
 H     1.051369    -2.458864    -0.311780
 H     0.973943    -1.813040     1.317822
 C     2.932156    -2.547212     0.718276
 H     3.570486    -2.511403    -0.178654
 H     3.485939    -2.018055     1.512195
 C     2.786197    -4.017002     1.126194
 H     2.209730    -4.523847     0.329582
 C     4.157962    -4.677407     1.205619
 H     4.700733    -4.596463     0.250905
 H     4.075940    -5.746195     1.456879
 H     4.778028    -4.200272     1.983209
 C     2.026711    -4.186182     2.436387
 H     1.954048    -5.247869     2.718599
 H     1.002480    -3.792435     2.376960
 H     2.541816    -3.659262     3.257957
 H     3.170355    -1.001612    -1.757020
 C     4.470206     0.153351    -0.492798
 H     4.565230    -0.587538     0.311189
 H     4.486401     1.143040    -0.006414
 C     5.669116     0.052216    -1.433269
 H     6.604213     0.184388    -0.864594
 H     5.706240    -0.966764    -1.859910
 C     5.582211     1.069566    -2.564253
 H     6.434648     0.954538    -3.253397
 H     5.660828     2.087351    -2.139926
 C     4.263096     0.941344    -3.316330
 H     4.234993    -0.031134    -3.840298
 H     4.186399     1.715327    -4.097341
 C     3.064108     1.027202    -2.379109
 H     3.009584     2.040442    -1.942083
 H     2.126005     0.871339    -2.930451
 H     0.644077     0.988233     1.552474
 C     2.008983     2.429420     0.804675
 H     1.352422     2.750406    -0.020127
 H     3.040341     2.492589     0.419959
 C     1.864549     3.371180     1.995209
 H     2.126591     4.399727     1.697964
 H     0.805628     3.398781     2.304755
 C     2.718919     2.919090     3.173217
 H     2.575029     3.592635     4.033525
 H     3.786986     2.990583     2.897858
 C     2.399021     1.480939     3.562511
 H     1.358715     1.427990     3.933460
 H     3.042082     1.152765     4.395325
 C     2.552397     0.529867     2.377957
 H     3.612454     0.489105     2.080400
 H     2.272059    -0.489362     2.685353
