  86
scf done:    -5713.118853
 C     0.895986     0.541094     3.215161
 H     0.821714    -0.074831     4.119861
 H     1.923642     0.895952     3.074279
 C    -0.146476     1.596125     3.087150
 H    -0.899166     1.609277     3.888218
 H     0.244438     2.610306     2.926227
 H    -0.801518     1.442842     2.131710
Co    -0.047169    -0.049524     1.614354
 C     1.696224     1.731852    -0.828664
 C     3.344702     0.209001     0.968967
 C     1.926983    -1.125965    -0.944149
 C    -1.645905    -1.277778    -1.251607
 C    -3.337262    -0.479130     0.915954
 C    -2.075764     1.484999    -0.669909
 P    -1.692619    -0.115779     0.165925
 P     1.639468     0.246726     0.258897
 C    -0.304034    -1.588586     2.327142
 O    -0.373133    -2.633238     2.823643
 C     1.349575     1.715049    -2.181088
 H     1.143151     0.758032    -2.663256
 C     1.917033     2.985499    -0.218736
 O     2.140686     2.948769     1.111968
 C     2.513072     4.116334     1.790514
 H     3.436009     4.551051     1.370179
 H     2.697699     3.824292     2.831666
 H     1.713299     4.877054     1.766083
 C     1.263730     2.890912    -2.927539
 H     0.986388     2.848132    -3.982565
 C     1.870748     4.164177    -0.965732
 H     2.069235     5.127537    -0.494904
 C     1.539355     4.110526    -2.320785
 H     1.485500     5.037512    -2.896187
 C     3.601038    -0.746196     1.958796
 H     2.781598    -1.371502     2.323566
 C     4.399802     1.003859     0.513848
 H     4.228282     1.747242    -0.268448
 C     4.877728    -0.906715     2.487469
 H     5.075096    -1.652575     3.259052
 C     5.681819     0.860542     1.038377
 H     6.505163     1.483290     0.684347
 C     5.913139    -0.095735     2.025271
Cl     7.505819    -0.277965     2.684006
 C     2.846192    -1.026617    -1.997814
 H     3.392172    -0.095071    -2.163174
 C     1.297564    -2.350829    -0.719694
 H     0.607728    -2.444474     0.120156
 C     3.082854    -2.102396    -2.845550
 H     3.785960    -2.019439    -3.675850
 C     1.540335    -3.444272    -1.546476
 H     1.042110    -4.398448    -1.373017
 C     2.414532    -3.306221    -2.619061
Cl     2.674414    -4.645721    -3.687486
 C    -1.306886    -0.877297    -2.544462
 H    -1.136789     0.182136    -2.745183
 C    -1.836522    -2.652988    -1.000247
 O    -2.055828    -2.979466     0.282895
 C    -2.206092    -4.320374     0.662157
 H    -3.112308    -4.766254     0.218071
 H    -2.291911    -4.319685     1.754820
 H    -1.326286    -4.921582     0.375690
 C    -1.181174    -1.804035    -3.579241
 H    -0.901528    -1.470648    -4.580285
 C    -1.761138    -3.579614    -2.042796
 H    -1.932191    -4.639512    -1.852887
 C    -1.422263    -3.150128    -3.325351
 H    -1.333184    -3.885034    -4.128669
 C    -3.502862    -0.252141     2.283515
 H    -2.642155     0.071523     2.873321
 C    -4.426420    -0.947727     0.173257
 H    -4.310091    -1.170032    -0.890509
 C    -4.732650    -0.462290     2.902120
 H    -4.860588    -0.285536     3.971202
 C    -5.659065    -1.170128     0.777045
 H    -6.507611    -1.542717     0.200860
 C    -5.806289    -0.919356     2.141811
Cl    -7.339369    -1.194904     2.899286
 C    -3.081362     1.613088    -1.638458
 H    -3.661836     0.742132    -1.947981
 C    -1.362005     2.625970    -0.298580
 H    -0.570587     2.536530     0.445439
 C    -3.351930     2.840049    -2.232485
 H    -4.129321     2.935928    -2.992076
 C    -1.627301     3.865207    -0.874308
 H    -1.056445     4.748015    -0.585863
 C    -2.616517     3.962355    -1.847128
Cl    -2.934017     5.491078    -2.595454
