 122
scf done:    -4719.031076
 C    -1.328850    -2.702821     2.098684
 H    -2.310288    -2.284583     2.356744
 H    -1.383226    -3.792777     1.985651
 C    -0.198022    -2.216249     2.938102
 H    -0.494766    -1.676159     3.850439
 H     0.559974    -2.971382     3.183942
 H     0.382263    -1.361001     2.397331
Co    -0.293458    -1.696068     0.803899
 C     2.192333     0.386601     1.390347
 C     2.837813    -2.230959     0.019634
 C     1.822689     0.089428    -1.430902
 C    -1.584509     0.465743    -1.402696
 C    -3.485138    -0.087995     0.693453
 C    -1.209328     1.500773     1.452917
 P    -1.647186    -0.010775     0.464637
 P     1.611275    -0.864237     0.125510
 C    -0.393841    -2.945764    -0.349537
 O    -0.574337    -3.763619    -1.156603
 H     1.318482     1.051761     1.433383
 H     2.211827    -0.172323     2.332575
 C     3.432482     1.205635     1.230990
 C     4.659447     0.809269     1.778863
 H     4.721927    -0.146542     2.300482
 C     3.370083     2.426039     0.554853
 H     2.413933     2.727302     0.122618
 C     5.779284     1.623957     1.652657
 H     6.730757     1.311167     2.090990
 C     4.488961     3.253182     0.406387
 C     4.375537     4.545427    -0.349725
 H     3.636120     5.218608     0.113985
 H     5.335268     5.079959    -0.387897
 H     4.042871     4.368381    -1.384966
 C     5.698550     2.839815     0.971792
 H     6.584252     3.474557     0.877850
 C     2.906519    -2.956441    -1.186362
 O     2.142071    -2.486302    -2.186442
 C     1.895661    -3.269637    -3.319044
 H     1.166458    -2.712436    -3.920698
 H     2.809916    -3.425718    -3.918097
 H     1.460590    -4.243705    -3.041153
 C     3.525105    -2.749532     1.128698
 O     3.340701    -2.114985     2.313127
 C     3.854650    -2.679028     3.485366
 H     3.514851    -2.041587     4.312225
 H     4.958718    -2.701136     3.485903
 H     3.477263    -3.704117     3.643307
 C     4.332152    -3.888552     1.015748
 H     4.878094    -4.271236     1.876930
 C     3.700173    -4.101045    -1.308484
 H     3.747402    -4.644086    -2.251730
 C     4.417929    -4.547536    -0.205290
 H     5.043249    -5.439122    -0.292400
 C     0.693587     0.429256    -2.184783
 O    -0.468639    -0.208883    -1.931299
 C     2.098048     5.775175    -3.340201
 H     2.114516     6.236507    -2.343727
 H     2.326759     4.705071    -3.251137
 H     2.848271     6.261012    -3.977911
 C     3.083329     0.518123    -1.899121
 O     4.148231     0.008260    -1.266112
 C     5.438781     0.374099    -1.662730
 H     6.127206    -0.154450    -0.992502
 H     5.603778     1.458509    -1.553003
 H     5.640660     0.072038    -2.705418
 C     3.179727     1.396757    -2.984034
 H     4.152183     1.748819    -3.327000
 C     0.777678     1.307714    -3.272442
 H    -0.128973     1.541997    -3.833396
 C     2.020033     1.798755    -3.648579
 H     2.101625     2.471855    -4.505865
 H    -1.459596     1.550951    -1.471707
 H     1.102489     5.900766    -3.786584
 C    -2.820894     0.039861    -2.134071
 C    -2.896496    -1.210689    -2.752444
 H    -2.030115    -1.873029    -2.726256
 C    -3.932598     0.884862    -2.156712
 H    -3.865778     1.861105    -1.667008
 C    -4.082046    -1.600622    -3.369216
 H    -4.141951    -2.576566    -3.858205
 C    -5.136809     0.495025    -2.747338
 C    -6.341038     1.388877    -2.677576
 H    -6.071886     2.443532    -2.841119
 H    -7.099121     1.109664    -3.423477
 H    -6.809782     1.322366    -1.681359
 C    -5.195787    -0.761912    -3.359392
 H    -6.126124    -1.084715    -3.835446
 C    -4.295588     1.016514     1.019065
 O    -3.704802     2.229970     1.000225
 C    -4.344114     3.334821     1.567569
 H    -3.607485     4.149309     1.570213
 H    -5.227307     3.649586     0.983339
 H    -4.657044     3.135792     2.607157
 C    -4.134522    -1.323512     0.483887
 O    -3.377291    -2.311253    -0.001539
 C    -3.917589    -3.575984    -0.246159
 H    -3.089800    -4.187403    -0.625760
 H    -4.717048    -3.531858    -1.006512
 H    -4.315213    -4.034125     0.676352
 C    -5.504917    -1.479530     0.738915
 H    -5.987188    -2.444661     0.591379
 C    -5.661838     0.869425     1.287500
 H    -6.270566     1.730789     1.560752
 C    -6.248356    -0.384922     1.157287
 H    -7.316011    -0.503581     1.358105
 C    -1.481076     1.404993     2.834635
 O    -2.123347     0.280588     3.211747
 C    -2.576365     0.132684     4.524647
 H    -3.099322    -0.831213     4.562812
 H    -1.743738     0.117578     5.250251
 H    -3.279933     0.936159     4.804530
 C    -0.536542     2.654715     1.017584
 O    -0.223448     2.732165    -0.298576
 C     0.162971     3.955844    -0.859275
 H     0.256816     3.780493    -1.938067
 H     1.140727     4.298768    -0.481334
 H    -0.588606     4.742004    -0.671279
 C    -0.182093     3.676798     1.909555
 H     0.344378     4.560863     1.552215
 C    -1.134684     2.415698     3.734428
 H    -1.364527     2.321141     4.795164
 C    -0.483645     3.549964     3.258793
 H    -0.200348     4.344011     3.953254
