 102
scf done:    -4333.035401
 C    -1.053844    -1.131451    -2.768210
 H    -2.128705    -1.275673    -2.586000
 H    -0.889427    -0.826791    -3.809519
 C    -0.189543    -2.256712    -2.299028
 H    -0.751941    -3.130577    -1.936104
 H     0.580125    -2.578657    -3.013773
 H     0.413490    -1.980579    -1.340055
Co     0.024458    -0.263420    -1.397413
 C     1.619162    -0.608516     1.677935
 C     3.187884    -1.023670    -0.660862
 C     2.465793     1.618675     0.122745
 C    -1.647649     0.463893     1.669975
 C    -3.016849     1.089777    -0.702704
 C    -2.662626    -1.640812     0.056008
 P    -1.717438    -0.064651    -0.102011
 P     1.739852    -0.053898    -0.070708
 C     0.470214     0.948730    -2.515406
 O     0.658564     1.784243    -3.298526
 C     1.667403     0.280911     2.751483
 H     1.807399     1.344756     2.551181
 C     1.424873    -1.977593     1.951206
 O     1.357355    -2.790489     0.872360
 C     1.421562    -4.179110     1.040931
 H     2.334984    -4.475305     1.584267
 H     1.444656    -4.612628     0.033349
 H     0.539444    -4.569752     1.578107
 C     1.548842    -0.165823     4.067263
 H     1.581856     0.551176     4.889386
 C     1.321462    -2.434403     3.266155
 H     1.186318    -3.495957     3.475111
 C     1.384920    -1.522347     4.319937
 H     1.297166    -1.885311     5.346776
 C     4.148381    -1.583916     0.194832
 H     4.042530    -1.474262     1.277546
 C     3.345592    -1.201787    -2.035391
 H     2.591928    -0.785656    -2.709054
 C     5.229057    -2.290405    -0.309981
 H     5.978603    -2.732626     0.349422
 C     4.431420    -1.903537    -2.559244
 H     4.519130    -2.017345    -3.640020
 C     5.382606    -2.454604    -1.694535
 O     6.462178    -3.155978    -2.095059
 C     6.668944    -3.348371    -3.465861
 H     6.790712    -2.390576    -4.002032
 H     7.593469    -3.931090    -3.566686
 H     5.840589    -3.910814    -3.932182
 C     1.691136     2.743481    -0.188339
 H     0.667642     2.596524    -0.533871
 C     3.777330     1.817347     0.562837
 H     4.411070     0.958840     0.795777
 C     2.207179     4.023724    -0.051596
 H     1.614570     4.905628    -0.302207
 C     4.308853     3.096994     0.705341
 H     5.337933     3.211198     1.046693
 C     3.520294     4.213222     0.397594
 O     3.939929     5.489736     0.498161
 C     5.249699     5.739283     0.923577
 H     5.995550     5.294777     0.241176
 H     5.377830     6.829241     0.926482
 H     5.431519     5.356633     1.943650
 C    -1.844585    -0.404577     2.744048
 H    -2.064743    -1.454682     2.547247
 C    -1.383827     1.820784     1.955597
 O    -1.211690     2.625298     0.888924
 C    -1.246656     4.014398     1.052640
 H    -2.172115     4.333343     1.562059
 H    -1.228912     4.445536     0.043335
 H    -0.371859     4.385599     1.614022
 C    -1.790860     0.042707     4.064567
 H    -1.947833    -0.662942     4.882728
 C    -1.341924     2.278407     3.274984
 H    -1.150224     3.330735     3.486500
 C    -1.544509     1.384842     4.326179
 H    -1.507300     1.750284     5.355396
 C    -4.101867     1.466236     0.105754
 H    -4.192289     1.057192     1.115792
 C    -2.919037     1.645003    -1.975912
 H    -2.067075     1.379561    -2.604059
 C    -5.056231     2.361308    -0.350457
 H    -5.901058     2.661562     0.272692
 C    -3.873611     2.545896    -2.451560
 H    -3.758006     2.960637    -3.453263
 C    -4.950425     2.909904    -1.637973
 O    -5.921070     3.774856    -1.998116
 C    -5.865697     4.354251    -3.270556
 H    -5.911297     3.594794    -4.071228
 H    -6.739782     5.012524    -3.356121
 H    -4.950484     4.956842    -3.409482
 C    -1.951951    -2.784613     0.458468
 H    -0.884045    -2.694564     0.666772
 C    -4.010509    -1.795034    -0.269870
 H    -4.589221    -0.934698    -0.611064
 C    -2.572988    -4.018086     0.572444
 H    -2.025445    -4.907492     0.891369
 C    -4.646596    -3.035225    -0.178189
 H    -5.699996    -3.110807    -0.449422
 C    -3.931970    -4.155606     0.254466
 O    -4.453378    -5.392705     0.384249
 C    -5.802111    -5.590096     0.067795
 H    -6.015674    -5.353122    -0.989629
 H    -6.015274    -6.652412     0.242718
 H    -6.467912    -4.983043     0.706687
