  86
scf done:    -4272.072186
 C     2.051278    -2.395131    -1.641112
 H     2.041479    -2.750419    -2.678447
 H     3.077723    -2.137096    -1.349553
 C     1.291812    -3.245849    -0.682811
 H     0.759858    -4.092371    -1.136865
 H     1.869068    -3.580107     0.191013
 H     0.434686    -2.654752    -0.137331
Co     0.612671    -1.197495    -1.095547
 O     2.264514     0.400196     1.473593
 C     3.392942     0.724542    -0.946481
 C     1.027612     1.995642    -0.150580
 O    -1.919407     0.673366    -1.219727
 C    -2.602014    -1.939495    -1.024838
 C    -1.824479    -0.519522     1.296838
 P    -1.374922    -0.707305    -0.457726
 P     1.778991     0.321248    -0.163728
 C     0.238471    -0.908407    -2.742245
 O     0.075407    -0.643695    -3.856055
 C     2.760610    -0.652128     2.167425
 C     3.433883    -1.709595     1.555060
 H     3.598448    -1.686665     0.476738
 C     2.586377    -0.644841     3.555680
 H     2.072048     0.199516     4.018573
 C     3.921502    -2.783126     2.309616
 C     4.674401    -3.893600     1.635552
 H     5.739744    -3.631306     1.525405
 H     4.623481    -4.826033     2.215513
 H     4.285915    -4.092196     0.625651
 C     3.071045    -1.708763     4.308412
 H     2.932445    -1.708009     5.392459
 C     3.725151    -2.776634     3.694064
 H     4.094756    -3.609958     4.296652
 C     4.424644     1.323818    -0.213127
 H     4.281731     1.527754     0.850061
 C     3.583894     0.470385    -2.308676
 H     2.787887    -0.004661    -2.885500
 C     5.627971     1.658763    -0.824774
 H     6.445730     2.119978    -0.267942
 C     4.778664     0.814018    -2.935975
 H     4.942449     0.625700    -3.998461
 C     5.787127     1.401017    -2.182175
 F     6.936394     1.721816    -2.771799
 C     0.956852     2.791004     0.997960
 H     1.349786     2.408204     1.939769
 C     0.515799     2.493358    -1.356275
 H     0.543339     1.877397    -2.257808
 C     0.391476     4.064439     0.946246
 H     0.324331     4.695713     1.834240
 C    -0.045451     3.763741    -1.420969
 H    -0.459111     4.159215    -2.349846
 C    -0.101090     4.532302    -0.263949
 F    -0.667434     5.739573    -0.309671
 C    -2.967246     1.457693    -0.817461
 C    -2.750998     2.416731     0.167455
 H    -1.760831     2.485148     0.620038
 C    -4.219792     1.318062    -1.416295
 H    -4.371415     0.561269    -2.186650
 C    -3.780845     3.271257     0.571047
 C    -3.511351     4.325269     1.604594
 H    -3.074850     3.885722     2.514983
 H    -2.788876     5.063594     1.221427
 H    -4.428132     4.860928     1.887157
 C    -5.252873     2.158317    -1.007596
 H    -6.239506     2.060803    -1.466978
 C    -5.038213     3.125002    -0.025271
 H    -5.857581     3.781288     0.279017
 C    -3.052775    -2.969767    -0.191995
 H    -2.745539    -3.000501     0.856129
 C    -3.004276    -1.925439    -2.367931
 H    -2.640279    -1.139282    -3.033599
 C    -3.900276    -3.961536    -0.680611
 H    -4.263308    -4.769890    -0.043439
 C    -3.858914    -2.902657    -2.864555
 H    -4.187296    -2.901308    -3.905434
 C    -4.295867    -3.911015    -2.011078
 F    -5.110648    -4.850381    -2.482313
 C    -0.811029    -0.627728     2.253892
 H     0.212269    -0.819953     1.929513
 C    -3.145540    -0.299419     1.723358
 H    -3.957398    -0.236236     0.996153
 C    -1.092296    -0.508567     3.611979
 H    -0.310184    -0.608177     4.365909
 C    -3.437199    -0.161693     3.074228
 H    -4.454906     0.019881     3.423739
 C    -2.402760    -0.265769     4.001009
 F    -2.683043    -0.140673     5.293895
