 106
scf done:    -4261.275624
 C    -1.434263    -2.663734    -2.342411
 H    -1.494939    -3.757532    -2.278785
 H    -2.382015    -2.263390    -2.730946
 C    -0.213647    -2.151479    -3.029928
 H     0.528504    -2.916321    -3.295609
 H    -0.414918    -1.521197    -3.910236
 H     0.386014    -1.407728    -2.356108
Co    -0.535831    -1.717998    -0.893590
 C    -2.837442     0.813399    -1.919075
 C    -3.788697    -1.200450    -0.235174
 C    -2.199558     0.735911     0.911042
 C     1.105686    -0.669547     1.915762
 C     2.751840    -1.742835    -0.218946
 C     1.685207     0.893247    -0.469108
 P     1.209150    -0.793603     0.058784
 P    -2.186595    -0.333541    -0.585185
 C    -0.570406    -3.044279     0.187139
 O    -0.698332    -3.878493     0.983571
 H    -3.150597     0.106661    -2.706403
 H    -3.758563     1.290698    -1.553779
 C    -1.920530     1.844438    -2.511471
 C    -2.259147     3.202775    -2.481421
 H    -3.180105     3.519350    -1.983108
 C    -0.751024     1.470841    -3.181547
 H    -0.472386     0.417685    -3.191961
 C    -1.448225     4.149109    -3.105343
 H    -1.727816     5.205791    -3.076183
 C     0.052929     2.399175    -3.847140
 C     1.229017     1.948202    -4.662063
 H     2.023570     2.707431    -4.675505
 H     1.654108     1.013260    -4.272145
 H     0.925983     1.767483    -5.707386
 C    -0.303109     3.751811    -3.789718
 H     0.322154     4.494713    -4.292175
 C    -3.904631    -2.594919    -0.287343
 H    -3.030461    -3.190443    -0.547910
 C    -4.920750    -0.467904     0.138800
 H    -4.858777     0.619702     0.235538
 C    -5.105402    -3.228706     0.000104
 H    -5.193673    -4.316141    -0.036358
 C    -6.134900    -1.085931     0.426852
 H    -6.989445    -0.474085     0.717049
 C    -6.234521    -2.481294     0.354201
 O    -7.358943    -3.177212     0.614893
 C    -8.514250    -2.480124     0.984237
 H    -8.845977    -1.783811     0.193477
 H    -9.298014    -3.231311     1.145345
 H    -8.370366    -1.910017     1.919307
 C    -2.169725     0.090749     2.160973
 H    -2.161198    -1.002537     2.199313
 C    -2.227077     2.130141     0.899179
 H    -2.237593     2.669584    -0.047970
 C    -2.153152     0.811161     3.342889
 H    -2.128537     0.311523     4.313108
 C    -2.202630     2.872701     2.083913
 H    -2.218253     3.961554     2.026866
 C    -2.162169     2.214973     3.316442
 O    -2.134406     2.834032     4.512731
 C    -2.121743     4.232422     4.546822
 H    -3.029277     4.664107     4.088362
 H    -2.087405     4.522324     5.604643
 H    -1.235390     4.647509     4.034395
 H     0.310561     0.061232     2.120019
 H     0.718111    -1.650510     2.228380
 C     2.370824    -0.334772     2.635820
 C     3.183301    -1.353462     3.147913
 H     2.863912    -2.394314     3.052788
 C     2.803144     0.990587     2.756987
 H     2.174767     1.793344     2.364198
 C     4.402131    -1.047227     3.745150
 H     5.033661    -1.850322     4.132727
 C     4.029181     1.315593     3.345513
 C     4.455990     2.750450     3.465135
 H     4.008209     3.222725     4.355717
 H     5.547672     2.840900     3.559982
 H     4.137117     3.335870     2.589897
 C     4.828777     0.276226     3.834708
 H     5.793837     0.508467     4.293742
 C     4.022406    -1.253382     0.140260
 H     4.123773    -0.258660     0.578777
 C     2.674842    -3.017597    -0.781781
 H     1.692007    -3.403462    -1.063525
 C     5.159865    -2.017136    -0.055386
 H     6.146194    -1.644909     0.227232
 C     3.812136    -3.800159    -0.981459
 H     3.705305    -4.792046    -1.420952
 C     5.065910    -3.300977    -0.614901
 O     6.224280    -3.970954    -0.761957
 C     6.194201    -5.259453    -1.309139
 H     5.794488    -5.259458    -2.338597
 H     7.231679    -5.616305    -1.331721
 H     5.591557    -5.952082    -0.695607
 C     2.670785     1.124471    -1.439444
 H     3.247745     0.288916    -1.841591
 C     0.970626     1.994907     0.007631
 H     0.188851     1.857286     0.754672
 C     2.934180     2.405878    -1.900293
 H     3.705158     2.588215    -2.650945
 C     1.209832     3.283851    -0.458416
 H     0.607797     4.106181    -0.072009
 C     2.192965     3.496035    -1.430546
 O     2.482560     4.696211    -1.972737
 C     1.775272     5.819457    -1.527050
 H     1.937001     6.003538    -0.449942
 H     2.157370     6.677937    -2.094112
 H     0.692139     5.718173    -1.713263
