  88
scf done:    -3577.416136
 C     1.508948    -1.556418    -2.660214
 H     1.318747    -1.462624    -3.736488
 H     2.590230    -1.530103    -2.468391
 C     0.767384    -2.659778    -1.985420
 H     0.078304    -3.224894    -2.628163
 H     1.402775    -3.352739    -1.412898
 H     0.071977    -2.263824    -1.130331
Co     0.323205    -0.564123    -1.477238
 C     1.580023     1.315426     1.168965
 C     2.474483    -1.400373     1.030360
 C     3.465811     0.570046    -0.768381
 C    -2.320255     1.342201    -0.420228
 C    -2.840582    -1.436474    -0.988711
 C    -1.508150    -0.752525     1.429412
 P    -1.518743    -0.318995    -0.355465
 P     1.881948    -0.042813    -0.051347
 C    -0.081843     0.551939    -2.700149
 O    -0.269148     1.372476    -3.500359
 H     2.454789     1.386964     1.837803
 H     0.720720     1.009411     1.783375
 C     1.310757     2.648592     0.488601
 H     2.126960     2.866507    -0.220135
 H     0.401806     2.565242    -0.132715
 C     1.178522     3.837106     1.444613
 H     2.140656     3.929825     1.982977
 C     0.957315     5.122014     0.654966
 H     1.759051     5.283845    -0.081880
 H     0.921166     6.001866     1.315954
 H     0.003619     5.080883     0.102085
 C     0.083135     3.646757     2.488041
 H     0.019402     4.519127     3.156770
 H     0.256834     2.760640     3.116872
 H    -0.902613     3.533277     2.006865
 C     3.314959    -2.389034     0.492285
 C     2.009553    -1.560832     2.341530
 C     3.216058    -3.646479     2.553715
 C     2.379859    -2.673441     3.095993
 C     3.682852    -3.499367     1.246550
 H     3.699299    -2.276722    -0.525122
 H     4.343373    -4.253868     0.811972
 H     3.507017    -4.516543     3.147126
 H     2.006122    -2.776592     4.117845
 H     1.341764    -0.820340     2.786140
 C     3.465923     1.104099    -2.060759
 C     4.650187     0.597990    -0.020359
 C     5.802405     1.680855    -1.846498
 C     5.811989     1.147439    -0.557024
 C     4.627619     1.660486    -2.595440
 H     2.542963     1.077994    -2.644205
 H     4.613364     2.076041    -3.605972
 H     6.714408     2.111348    -2.267565
 H     6.731036     1.159259     0.034332
 H     4.665049     0.177935     0.989161
 H    -2.235170     1.641954    -1.477608
 H    -1.643039     2.016545     0.127403
 C    -3.758922     1.469423     0.053266
 H    -4.382177     0.751599    -0.503245
 H    -3.842709     1.179163     1.115854
 C    -4.356000     2.868642    -0.126725
 H    -4.285516     3.120154    -1.201654
 C    -5.831270     2.860210     0.257123
 H    -6.393213     2.111306    -0.322288
 H    -6.298198     3.841975     0.083191
 H    -5.956299     2.616843     1.325658
 C    -3.597105     3.937100     0.652365
 H    -4.073552     4.923067     0.539526
 H    -2.555596     4.039615     0.312658
 H    -3.579161     3.700019     1.730081
 C    -2.789668    -1.815630    -2.334810
 C    -3.900897    -1.890723    -0.192864
 C    -4.837578    -3.070383    -2.082881
 C    -4.891665    -2.704151    -0.737707
 C    -3.786006    -2.623396    -2.880629
 H    -1.948362    -1.470215    -2.942119
 H    -3.735033    -2.910187    -3.933795
 H    -5.615536    -3.709558    -2.507641
 H    -5.712410    -3.054650    -0.107034
 H    -3.949316    -1.611755     0.862252
 C    -1.287070    -2.091583     1.782462
 C    -1.609466     0.200008     2.449807
 C    -1.295541    -1.513216     4.127138
 C    -1.496325    -0.176537     3.788923
 C    -1.194433    -2.471098     3.117450
 H    -1.185488    -2.848016     0.999336
 H    -1.023916    -3.520023     3.370078
 H    -1.215363    -1.808689     5.175921
 H    -1.575355     0.582905     4.570735
 H    -1.774868     1.251310     2.209158
