  98
scf done:    -3881.116023
 C     0.103734    -3.642493    -1.261967
 H    -0.195159    -4.256845    -2.119067
 H     1.163780    -3.788489    -1.029337
 C    -0.807345    -3.714749    -0.083252
 H    -1.668183    -4.386698    -0.204386
 H    -0.299242    -3.925989     0.868047
 H    -1.334739    -2.693289     0.149260
Co    -0.601199    -1.822336    -1.177285
 O     1.281476    -0.109383     0.797274
 O     2.536392    -1.940261    -0.261408
 O     1.996472     0.002794    -1.672319
 O    -1.048033     1.279689    -0.735369
 O    -3.144556     0.189136    -1.473000
 O    -2.452231    -0.138773     0.861289
 P    -1.797690    -0.180407    -0.635614
 P     1.247366    -0.997126    -0.613287
 C    -1.053664    -1.936348    -2.834875
 O    -1.247326    -2.011861    -3.970401
 C     2.420050     0.349398     1.403952
 C     2.879696    -0.306212     2.543781
 H     2.339631    -1.192062     2.884717
 C     3.083034     1.476020     0.917363
 H     2.710724     1.972983     0.022943
 C     4.018605     0.145130     3.217395
 C     4.538484    -0.599189     4.412820
 H     3.719071    -0.966710     5.048006
 H     5.126189    -1.477972     4.098718
 H     5.193958     0.032907     5.028409
 C     4.215399     1.932309     1.587196
 H     4.741102     2.814605     1.213705
 C     4.681031     1.276000     2.724702
 H     5.572745     1.643868     3.238621
 C     3.459177    -2.379876    -1.250779
 H     3.699188    -3.426566    -0.999509
 H     2.982290    -2.378487    -2.245672
 C     4.714881    -1.532060    -1.263595
 H     5.369463    -1.911522    -2.069063
 H     4.432418    -0.504171    -1.542850
 C     5.464650    -1.520052     0.060394
 H     5.775341    -2.549770     0.314618
 H     4.770665    -1.204024     0.854365
 C     6.674682    -0.601443     0.048491
 H     7.408982    -0.903892    -0.716307
 H     6.374706     0.435971    -0.168945
 H     7.187432    -0.596402     1.022491
 C     1.345170     0.663760    -2.750632
 H     1.788077     0.278720    -3.685012
 H     0.276489     0.406230    -2.754048
 C     1.535961     2.159003    -2.638018
 H     0.941712     2.641492    -3.433464
 H     1.087797     2.491670    -1.686765
 C     2.988842     2.606380    -2.729203
 H     3.379417     2.368977    -3.734484
 H     3.593136     2.007173    -2.027412
 C     3.174570     4.085828    -2.435215
 H     2.593014     4.710629    -3.132154
 H     2.832751     4.333637    -1.416718
 H     4.229472     4.389080    -2.516530
 C    -1.426144     2.421822    -0.069699
 C    -2.669781     3.008537    -0.281700
 H    -3.365263     2.528404    -0.971628
 C    -0.500408     2.991308     0.805246
 H     0.458354     2.495382     0.961690
 C    -3.014774     4.187389     0.390151
 C    -4.360319     4.812554     0.159487
 H    -5.170513     4.090415     0.346264
 H    -4.520017     5.680496     0.814212
 H    -4.465966     5.152784    -0.883205
 C    -0.837690     4.169231     1.464003
 H    -0.120877     4.626003     2.150632
 C    -2.084145     4.761759     1.262023
 H    -2.340441     5.683519     1.790593
 C    -4.075815    -0.792797    -1.910995
 H    -4.713667    -0.271272    -2.640954
 H    -3.543928    -1.596300    -2.446722
 C    -4.908873    -1.364867    -0.782231
 H    -5.621928    -2.082091    -1.226210
 H    -4.254795    -1.957711    -0.119532
 C    -5.650627    -0.317547     0.035135
 H    -6.318463     0.255764    -0.632626
 H    -4.914251     0.399562     0.430125
 C    -6.451834    -0.915332     1.179522
 H    -7.207431    -1.631238     0.816939
 H    -5.796559    -1.456973     1.880387
 H    -6.978801    -0.138428     1.753901
 C    -1.666343    -0.301588     2.039904
 H    -0.776674    -0.912709     1.815723
 H    -1.308609     0.691092     2.357267
 C    -2.515279    -0.943116     3.112477
 H    -1.951864    -0.902106     4.060889
 H    -3.418635    -0.326147     3.261080
 C    -2.912337    -2.379852     2.806759
 H    -1.999338    -2.991668     2.700379
 H    -3.410690    -2.406546     1.823473
 C    -3.821544    -2.990981     3.859437
 H    -3.339992    -2.998167     4.850539
 H    -4.759163    -2.420041     3.955906
 H    -4.089282    -4.029310     3.611930
