  92
scf done:    -5716.089526
 C    -1.836446    -0.674155    -2.969775
 H    -2.076861    -1.575468    -3.544090
 H    -2.766752    -0.199158    -2.632762
 C    -0.853610     0.252097    -3.609440
 H    -0.439901    -0.106228    -4.561003
 H    -1.214024     1.285030    -3.724763
 H     0.094120     0.424298    -2.946495
Co    -0.308495    -0.794250    -1.753620
 C    -2.689802     1.194439    -0.241491
 O    -2.403051    -1.331830     0.611131
 O    -0.599105     0.246907     1.223920
 C     1.874023    -1.772299     0.590033
 O     2.823052    -0.865267    -1.848950
 O     2.039096     0.776757    -0.035859
 P     1.551950    -0.628684    -0.789609
 P    -1.460234    -0.155960    -0.148288
 C    -0.092326    -2.478759    -2.073483
 O    -0.032886    -3.626732    -2.185193
 H    -3.113307     1.359436     0.762909
 H    -3.508429     0.808615    -0.869187
 C    -2.104020     2.470285    -0.828814
 H    -1.379962     2.899059    -0.117815
 H    -1.506752     2.226810    -1.724804
 C    -3.143381     3.532645    -1.193803
 H    -3.769525     3.707789    -0.298373
 C    -2.454390     4.843001    -1.551173
 H    -1.828961     5.213104    -0.725036
 H    -3.185198     5.627967    -1.799399
 H    -1.792842     4.715590    -2.423561
 C    -4.056833     3.073983    -2.325441
 H    -4.800496     3.846988    -2.572232
 H    -4.611698     2.156966    -2.075112
 H    -3.472590     2.871861    -3.239203
 C    -3.453546    -1.946066    -0.006403
 C    -3.250022    -3.076195    -0.800628
 H    -2.241159    -3.463073    -0.938897
 C    -4.748056    -1.460990     0.195927
 H    -4.896085    -0.594418     0.842637
 C    -4.333547    -3.705504    -1.405695
 H    -4.182902    -4.587789    -2.029691
 C    -5.834811    -2.088951    -0.405368
 H    -6.849329    -1.718846    -0.249535
 C    -5.620712    -3.205889    -1.211557
Cl    -6.969236    -3.987333    -1.969517
 C    -1.136650     0.540264     2.445918
 C    -1.490054    -0.484190     3.326104
 H    -1.383136    -1.520167     3.004835
 C    -1.278753     1.873752     2.832179
 H    -0.997822     2.663436     2.133556
 C    -1.979639    -0.174969     4.590666
 H    -2.257560    -0.967487     5.287222
 C    -1.769453     2.187617     4.096771
 H    -1.882831     3.226970     4.408737
 C    -2.118109     1.160004     4.971338
Cl    -2.728207     1.544381     6.546446
 H     2.119219    -2.737493     0.113297
 H     0.877933    -1.900029     1.040317
 C     2.899396    -1.387146     1.646540
 H     3.874587    -1.195731     1.175358
 H     2.592242    -0.435752     2.110565
 C     3.082125    -2.448512     2.734012
 H     3.345707    -3.398576     2.231241
 C     4.246069    -2.064096     3.640174
 H     5.176604    -1.937875     3.064776
 H     4.425537    -2.829204     4.411153
 H     4.040881    -1.111825     4.157070
 C     1.809543    -2.678540     3.542352
 H     1.972203    -3.427443     4.332612
 H     0.978283    -3.039602     2.917605
 H     1.480157    -1.744467     4.027884
 C     4.112624    -1.047489    -1.425705
 C     4.625666    -2.343030    -1.360117
 H     3.996213    -3.179239    -1.670683
 C     4.905210     0.043183    -1.065638
 H     4.497540     1.052559    -1.134774
 C     5.918161    -2.556842    -0.891552
 H     6.327625    -3.565890    -0.824117
 C     6.198613    -0.166666    -0.597750
 H     6.825487     0.675319    -0.300337
 C     6.694509    -1.466633    -0.499224
Cl     8.293796    -1.729749     0.111827
 C     1.756502     2.021924    -0.493613
 C     1.800200     2.350385    -1.851268
 H     2.075283     1.590869    -2.585596
 C     1.458957     3.003522     0.453815
 H     1.442005     2.721794     1.507702
 C     1.522214     3.653280    -2.259175
 H     1.553945     3.920294    -3.316684
 C     1.197239     4.307543     0.049684
 H     0.971206     5.083230     0.783343
 C     1.222568     4.626436    -1.308795
Cl     0.894903     6.250872    -1.815256
