  70
scf done:    -3266.062527
 C    -1.274124    -1.989458     2.327452
 H    -1.996397    -2.732615     2.685871
 H    -0.255918    -2.396895     2.366741
 C    -1.400900    -0.634220     2.938800
 H    -2.164551    -0.549257     3.725022
 H    -0.450467    -0.206493     3.287876
 H    -1.784242     0.152889     2.167092
Co    -1.784419    -0.910583     0.780063
 O     1.384214    -1.037808     0.833715
 C     0.307965    -3.233335    -0.373536
 C     0.515039    -0.761375    -1.806606
 O    -1.196338     1.825649    -1.089887
 C    -3.308514     0.602664    -1.904080
 C    -3.296598     2.077039     0.593157
 P    -2.346509     0.813104    -0.354160
 P     0.050551    -1.425027    -0.142008
 C    -3.165032    -1.888862     0.471081
 O    -3.996204    -2.657296     0.223150
 C     2.692214    -1.070083     0.453716
 C     3.272330     0.073620    -0.100327
 H     2.655279     0.964305    -0.228738
 C     3.460865    -2.217183     0.660146
 H     3.002121    -3.093470     1.121235
 C     4.615577     0.083178    -0.482728
 C     5.213879     1.308132    -1.111950
 H     6.258065     1.454431    -0.798250
 H     5.212536     1.224356    -2.211644
 H     4.640645     2.209099    -0.850935
 C     4.802391    -2.211793     0.282585
 H     5.410374    -3.105851     0.442173
 C     5.375809    -1.077580    -0.287924
 H     6.429995    -1.087871    -0.577262
 H     0.270160    -3.674739     0.634039
 C    -0.742448    -3.872815    -1.270265
 H    -0.754435    -3.425851    -2.276913
 H    -1.750720    -3.761547    -0.848236
 H     1.323635    -3.404082    -0.764272
 H    -0.544528    -4.948612    -1.393402
 H     0.813202     0.283632    -1.634398
 C     1.551922    -1.489246    -2.650949
 H     1.218553    -2.497689    -2.935694
 H     2.517189    -1.586025    -2.135405
 H    -0.442738    -0.697594    -2.348777
 H     1.732328    -0.931148    -3.583062
 C    -0.108910     2.373726    -0.494915
 C     0.287198     2.087716     0.811595
 H    -0.266856     1.347001     1.386284
 C     0.648684     3.258864    -1.273603
 H     0.327211     3.465036    -2.295992
 C     1.436328     2.670093     1.359383
 C     1.876674     2.268220     2.735440
 H     2.178094     1.207856     2.738465
 H     2.730623     2.866791     3.081061
 H     1.060876     2.376561     3.466821
 C     1.779898     3.851922    -0.726121
 H     2.366401     4.548272    -1.330747
 C     2.174549     3.566907     0.583137
 H     3.071180     4.032753     0.999169
 H    -2.774777    -0.169049    -2.481605
 C    -4.764781     0.210463    -1.706590
 H    -5.327767     0.986100    -1.165522
 H    -4.868712    -0.731351    -1.151610
 H    -3.214196     1.544262    -2.466981
 H    -5.254294     0.074207    -2.682591
 H    -2.688932     2.297860     1.486535
 C    -3.647175     3.355765    -0.148643
 H    -4.305081     3.164510    -1.009670
 H    -2.743218     3.856377    -0.524571
 H    -4.191084     1.551065     0.966915
 H    -4.171272     4.058849     0.516447
