 110
scf done:    -4189.572867
 C    -0.112681    -0.574146    -2.966978
 H    -0.803639    -0.304861    -3.774911
 H     0.916014    -0.298602    -3.237333
 C    -0.260746    -1.963611    -2.455767
 H    -1.061577    -2.547086    -2.928488
 H     0.675966    -2.535618    -2.424662
 H    -0.575627    -1.999126    -1.329617
Co    -0.719840    -0.266349    -1.127955
 O     2.386097    -0.599855    -1.038140
 C     1.736010     2.033873    -1.575045
 C     1.635567     1.006998     1.126742
 O    -1.511224     0.474495     2.018887
 C    -3.331102    -1.141951     0.843870
 C    -0.733886    -1.946466     1.913010
 P    -1.531717    -0.697693     0.795944
 P     1.192669     0.527086    -0.621844
 C    -2.060504     0.646359    -1.707046
 O    -2.892385     1.324371    -2.137738
 C     3.738479    -0.495312    -1.189638
 C     4.556578    -1.204437    -0.307064
 H     4.083888    -1.782259     0.488468
 C     4.307942     0.214221    -2.247226
 H     3.671077     0.715950    -2.975245
 C     5.945041    -1.170673    -0.425287
 C     6.817067    -1.917585     0.541057
 H     7.490190    -1.228792     1.075203
 H     6.219211    -2.450415     1.293149
 H     7.449292    -2.654660     0.020826
 C     5.696663     0.254161    -2.369198
 H     6.145432     0.815648    -3.192413
 C     6.510457    -0.418398    -1.464514
 H     7.597603    -0.373949    -1.570341
 H     2.788965     2.242664    -1.341557
 H     1.695917     1.726756    -2.628055
 C     0.880840     3.252930    -1.350229
 C     1.089009     4.062387    -0.224168
 H     1.884383     3.812539     0.480293
 C    -0.118423     3.627508    -2.275526
 C    -0.326142     2.882879    -3.560389
 H    -0.379279     1.800952    -3.396036
 H     0.503888     3.075985    -4.261512
 H    -1.258135     3.196069    -4.048712
 C     0.319155     5.195482     0.020768
 H     0.507252     5.799628     0.910894
 C    -0.888881     4.765766    -2.010667
 H    -1.666077     5.046192    -2.726536
 C    -0.683810     5.546681    -0.876888
 H    -1.300698     6.431213    -0.700602
 H     1.156898     1.992297     1.251289
 H     1.046109     0.341190     1.764695
 C     3.073356     1.034326     1.569139
 C     3.966290     1.994341     1.074489
 H     3.614593     2.745684     0.367718
 C     3.556366     0.095158     2.507570
 C     2.676133    -0.968567     3.097412
 H     2.310992    -1.671126     2.330718
 H     1.793416    -0.542501     3.600440
 H     3.226034    -1.559459     3.842446
 C     5.305038     2.021740     1.451090
 H     5.972289     2.775924     1.028463
 C     4.900487     0.146694     2.891592
 H     5.265305    -0.582832     3.620027
 C     5.778901     1.089486     2.367534
 H     6.825899     1.098281     2.679495
 C    -2.323034     1.575810     1.970477
 C    -3.309945     1.694868     2.951355
 H    -3.386159     0.908405     3.706269
 C    -2.181973     2.551307     0.984276
 H    -1.407459     2.452397     0.223190
 C    -4.179873     2.788279     2.965459
 C    -5.215281     2.930144     4.043394
 H    -5.527872     1.951785     4.436170
 H    -4.820759     3.513022     4.892571
 H    -6.109290     3.454435     3.675697
 C    -3.058555     3.634409     0.986304
 H    -2.960186     4.390794     0.206109
 C    -4.046890     3.753841     1.959647
 H    -4.727675     4.609050     1.941330
 H    -3.519417    -1.741654     1.749368
 H    -3.843051    -0.181615     0.998888
 C    -3.842621    -1.817159    -0.396219
 C    -3.249221    -3.004328    -0.840721
 H    -2.416222    -3.433750    -0.278844
 C    -4.906801    -1.260188    -1.134300
 C    -5.592701     0.004882    -0.703003
 H    -4.902091     0.862474    -0.707963
 H    -6.008600    -0.079930     0.313543
 H    -6.421014     0.247604    -1.382374
 C    -3.682572    -3.645795    -1.996754
 H    -3.198810    -4.570931    -2.318948
 C    -5.325506    -1.914764    -2.298718
 H    -6.146298    -1.481998    -2.877038
 C    -4.725913    -3.093008    -2.734651
 H    -5.075857    -3.577995    -3.649110
 H     0.149185    -1.415210     2.293497
 H    -1.409971    -2.072340     2.769133
 C    -0.314904    -3.247839     1.300661
 C     0.811482    -3.267175     0.467643
 H     1.345701    -2.336231     0.263713
 C    -1.014174    -4.449326     1.541715
 C    -2.219441    -4.501564     2.437497
 H    -3.061955    -3.923262     2.025451
 H    -2.004193    -4.098078     3.439572
 H    -2.566824    -5.535998     2.562813
 C     1.246638    -4.442260    -0.137499
 H     2.126952    -4.424237    -0.784363
 C    -0.562869    -5.621308     0.922926
 H    -1.103178    -6.553794     1.107622
 C     0.551477    -5.627195     0.087695
 H     0.877797    -6.559032    -0.380144
