  58
scf done:    -3108.870009
 C     0.236104    -3.426191    -0.756573
 H    -0.628978    -4.026930    -1.062712
 H     1.082197    -3.637869    -1.426580
 C     0.554874    -3.493388     0.701764
 H    -0.145624    -4.085606     1.306529
 H     1.586076    -3.808934     0.926615
 H     0.558004    -2.429831     1.188494
Co    -0.148249    -1.610355    -0.193081
 C     2.363224     0.838315    -0.603539
 C     3.214772    -1.795924    -1.129301
 C     1.386484    -0.575589    -2.878933
 C    -2.610482     0.478858     0.872111
 C    -1.107533    -0.895283     2.883030
 C    -0.076823     1.427619     1.691453
 P    -0.917187    -0.137391     1.216965
 P     1.662127    -0.794558    -1.075369
 C    -1.508241    -1.526668    -1.209602
 O    -2.344296    -1.410459    -2.006468
 C     2.237683     1.979000    -1.398395
 H     1.763013     1.897782    -2.377963
 C     2.975230     0.981557     0.659743
 O     3.017971    -0.135953     1.424312
 C     3.591658    -0.076265     2.699297
 H     4.658295     0.205163     2.657376
 H     3.505035    -1.082486     3.128898
 H     3.061568     0.637943     3.354379
 C     2.703853     3.225491    -0.975419
 H     2.587945     4.100183    -1.618861
 C     3.466438     2.217426     1.082531
 H     3.947367     2.321860     2.055388
 C     3.323850     3.338327     0.262852
 H     3.703026     4.303945     0.605465
 H     3.597660    -1.920480    -0.108609
 H     2.989046    -2.787480    -1.547533
 H     3.983168    -1.310708    -1.749231
 H     2.262145    -0.175638    -3.413682
 H     1.136055    -1.570505    -3.274727
 H     0.510871     0.065837    -3.048824
 C    -3.729321     0.140257     1.632873
 H    -3.610524    -0.475551     2.526172
 C    -2.798414     1.260677    -0.285133
 O    -1.676260     1.563861    -0.972215
 C    -1.788161     2.068966    -2.273575
 H    -2.361620     1.380354    -2.916463
 H    -0.765334     2.158637    -2.660389
 H    -2.257133     3.068231    -2.290031
 C    -5.010045     0.556279     1.265164
 H    -5.871751     0.275032     1.873966
 C    -4.076715     1.672179    -0.665428
 H    -4.222656     2.264017    -1.569200
 C    -5.177323     1.319086     0.115266
 H    -6.174937     1.644440    -0.189248
 H    -1.684371    -1.827738     2.809283
 H    -0.099858    -1.147989     3.245203
 H    -1.585677    -0.216030     3.605167
 H    -0.699208     1.997430     2.397137
 H     0.883997     1.182640     2.161625
 H     0.114828     2.031140     0.795437
