 100
scf done:    -3734.521523
 C     1.449817    -3.051546    -0.904124
 H     1.276119    -3.659533    -1.800387
 H     2.522818    -2.944272    -0.720768
 C     0.672574    -3.470918     0.296202
 H     0.050629    -4.366803     0.153750
 H     1.274058    -3.568850     1.212136
 H    -0.137726    -2.685286     0.582720
Co     0.300656    -1.496621    -0.620115
 C     1.602488     1.185378     1.399145
 C     3.347138    -0.992314     0.726881
 C     2.605773     1.024885    -1.258787
 C    -1.788864     1.105902    -0.989041
 C    -2.996395    -1.582252    -0.697195
 C    -2.171286    -0.036146     1.605475
 P    -1.601768    -0.527413    -0.098430
 P     1.889213    -0.085991     0.046670
 C    -0.117958    -1.601180    -2.272535
 O    -0.320892    -1.662903    -3.413557
 H     2.533575     1.322955     1.969229
 H     0.872254     0.741312     2.087036
 C     1.089800     2.533825     0.916761
 H     1.812702     2.979638     0.217062
 H     0.171840     2.395023     0.325790
 C     0.808190     3.545864     2.030671
 H     1.752391     3.693018     2.589853
 C     0.413406     4.886652     1.420650
 H     1.183538     5.255966     0.725618
 H     0.260372     5.653080     2.196173
 H    -0.528219     4.795426     0.853822
 C    -0.249698     3.064914     3.016753
 H    -0.469991     3.837842     3.769322
 H     0.064197     2.160970     3.557774
 H    -1.194645     2.821178     2.502547
 C     3.368321    -1.229126     2.110563
 H     2.587301    -0.802614     2.742284
 C     4.349168    -1.579954    -0.081021
 C     4.413251    -1.412121    -1.572929
 H     4.874826    -0.452254    -1.852413
 H     3.415425    -1.427792    -2.031470
 H     5.012747    -2.217375    -2.020538
 C     4.361737    -1.997143     2.709334
 H     4.349909    -2.157513     3.790055
 C     5.341953    -2.345956     0.545023
 H     6.119287    -2.796055    -0.078826
 C     5.362990    -2.555577     1.919827
 H     6.153318    -3.160940     2.369839
 C     1.936421     1.037063    -2.486393
 H     1.084265     0.370000    -2.616889
 C     3.733150     1.863610    -1.084495
 C     4.515337     1.972182     0.194016
 H     4.651503     1.003124     0.690566
 H     4.008106     2.638817     0.910770
 H     5.507530     2.402941     0.000761
 C     2.346263     1.846481    -3.542449
 H     1.800941     1.824524    -4.488745
 C     4.136258     2.661660    -2.163089
 H     5.013986     3.301931    -2.036969
 C     3.458685     2.663958    -3.379502
 H     3.805858     3.301721    -4.196182
 H    -0.976486     1.114996    -1.729370
 H    -1.474576     1.813417    -0.208900
 C    -3.077752     1.611780    -1.638045
 H    -3.137025     1.236153    -2.669991
 H    -3.981877     1.219240    -1.144252
 C    -3.150595     3.143241    -1.683659
 H    -2.176892     3.505720    -2.064406
 C    -4.232680     3.596278    -2.656841
 H    -4.046188     3.216219    -3.673220
 H    -4.289997     4.694392    -2.712151
 H    -5.222468     3.227355    -2.339500
 C    -3.374588     3.758466    -0.306407
 H    -3.334859     4.857626    -0.352873
 H    -2.623674     3.433885     0.429767
 H    -4.365057     3.478628     0.089883
 C    -3.333664    -1.472376    -2.054530
 H    -2.789078    -0.775000    -2.689758
 C    -3.635358    -2.571798     0.082769
 C    -3.271890    -2.869110     1.508601
 H    -3.657987    -2.111210     2.206325
 H    -2.181493    -2.908250     1.643085
 H    -3.678927    -3.844726     1.808476
 C    -4.323147    -2.259212    -2.631630
 H    -4.557819    -2.144358    -3.692185
 C    -4.634184    -3.350387    -0.517217
 H    -5.131326    -4.112823     0.089004
 C    -4.993223    -3.196692    -1.851465
 H    -5.775906    -3.824075    -2.284368
 C    -3.348731     0.727970     1.664958
 H    -3.882629     0.955512     0.743269
 C    -1.525427    -0.369239     2.815142
 C    -0.333157    -1.272645     2.918269
 H     0.254392    -1.290530     1.992139
 H    -0.652281    -2.310143     3.115556
 H     0.313425    -0.974129     3.756252
 C    -3.871484     1.193485     2.864428
 H    -4.787731     1.788296     2.866224
 C    -2.063947     0.116318     4.017249
 H    -1.553884    -0.134584     4.951583
 C    -3.215098     0.890775     4.055627
 H    -3.602374     1.251293     5.011501
