 102
scf done:    -3960.620903
 C    -1.881475    -1.927369    -2.675032
 H    -2.010576    -3.002309    -2.853253
 H    -2.833333    -1.406230    -2.852456
 C    -0.703143    -1.323621    -3.360854
 H    -0.047441    -2.037535    -3.877256
 H    -0.945975    -0.494436    -4.043383
 H     0.013970    -0.791312    -2.606374
Co    -0.784678    -1.381512    -1.158457
 C    -3.008155     1.405774    -1.298154
 C    -3.935578    -0.923749    -0.061218
 C    -2.128746     0.594580     1.350474
 C     1.194850    -1.137264     1.613491
 C     2.552185    -1.666980    -0.891432
 C     1.621597     0.981146    -0.328440
 P     1.098287    -0.772612    -0.212849
 P    -2.317313    -0.060887    -0.358464
 C    -0.790853    -2.926653    -0.420864
 O    -0.890526    -3.922617     0.165815
 H    -3.447355     0.931254    -2.192362
 H    -3.850816     1.828936    -0.732289
 C    -2.066247     2.495957    -1.722241
 C    -2.285632     3.824043    -1.337028
 H    -3.130130     4.066370    -0.685266
 C    -0.992632     2.225317    -2.575817
 H    -0.805318     1.191821    -2.863772
 C    -1.453479     4.841586    -1.799285
 H    -1.636137     5.874022    -1.490241
 C    -0.169190     3.235031    -3.078779
 C     0.898887     2.913988    -4.082498
 H     1.313656     1.909480    -3.919263
 H     0.489103     2.942519    -5.106373
 H     1.726390     3.636105    -4.038927
 C    -0.407227     4.552038    -2.670651
 H     0.229424     5.357384    -3.047315
 C    -4.988883    -0.248331     0.574697
 H    -4.855144     0.785396     0.905242
 C    -4.131383    -2.259912    -0.409608
 H    -3.317759    -2.812787    -0.877505
 C    -6.198527    -0.882108     0.825790
 H    -7.000552    -0.331132     1.325861
 C    -5.346278    -2.895594    -0.151654
 H    -5.468781    -3.945753    -0.431261
 C    -6.403070    -2.221093     0.462245
 C    -7.716881    -2.895380     0.727853
 H    -8.512118    -2.477772     0.088680
 H    -7.663078    -3.975233     0.531096
 H    -8.035900    -2.754061     1.772202
 C    -2.104810     1.949087     1.690446
 H    -2.196505     2.711353     0.916823
 C    -1.989523    -0.348244     2.381190
 H    -2.020090    -1.414867     2.139634
 C    -1.922203     2.348526     3.015770
 H    -1.897579     3.416008     3.253169
 C    -1.814395     0.054526     3.698551
 H    -1.705877    -0.702263     4.480807
 C    -1.767624     1.414110     4.042298
 C    -1.557919     1.836712     5.466458
 H    -2.333066     1.415157     6.125840
 H    -0.585868     1.482869     5.845961
 H    -1.582768     2.930378     5.571110
 H     0.462720    -0.466456     2.084745
 H     0.791067    -2.156477     1.704239
 C     2.540845    -1.031878     2.252972
 C     3.342589    -2.169870     2.403475
 H     2.960310    -3.142684     2.084152
 C     3.052644     0.205956     2.657800
 H     2.433817     1.099553     2.547998
 C     4.626972    -2.060224     2.927221
 H     5.248019    -2.953095     3.033092
 C     4.344953     0.335795     3.176019
 C     4.857251     1.680675     3.605029
 H     4.505125     2.475252     2.930359
 H     4.503807     1.933261     4.618816
 H     5.956232     1.707350     3.624495
 C     5.130445    -0.815819     3.301217
 H     6.145448    -0.735390     3.700374
 C     2.343145    -2.755384    -1.741981
 H     1.316959    -3.027583    -1.999846
 C     3.873822    -1.325610    -0.559281
 H     4.073578    -0.480210     0.101856
 C     3.417956    -3.486758    -2.245029
 H     3.226974    -4.335827    -2.907137
 C     4.940198    -2.057498    -1.065195
 H     5.959498    -1.775931    -0.785863
 C     4.733920    -3.152894    -1.916062
 C     5.897849    -3.935715    -2.448438
 H     6.485354    -4.378741    -1.628437
 H     5.569215    -4.751295    -3.107407
 H     6.582447    -3.290636    -3.021838
 C     1.006948     1.932936     0.496120
 H     0.269813     1.620999     1.235911
 C     2.541540     1.433015    -1.278052
 H     3.029274     0.723233    -1.949550
 C     1.309536     3.282199     0.383037
 H     0.798842     3.999183     1.032017
 C     2.855056     2.788180    -1.375928
 H     3.585312     3.113566    -2.122060
 C     2.246513     3.738152    -0.553571
 C     2.572799     5.197507    -0.661622
 H     3.121009     5.550993     0.227020
 H     3.194474     5.408851    -1.543178
 H     1.654350     5.799645    -0.738010
