  64
scf done:    -3111.800997
 C    -3.724525    -0.841996    -0.341318
 H    -4.270942    -1.730471    -0.003609
 H    -4.219019     0.080706    -0.022315
 C    -3.287196    -0.879502    -1.766544
 H    -3.566752    -1.790448    -2.314588
 H    -3.573022     0.008163    -2.349316
 H    -2.116283    -0.861099    -1.884965
Co    -1.781893    -0.880452    -0.168600
 C    -0.572477     2.454109    -0.477819
 O    -3.028268     1.950514     0.506633
 O    -0.912413     1.447294     1.885177
 C     1.435483    -1.102307     0.754253
 O     0.620741    -2.906676    -0.940954
 O     0.814233    -0.549708    -1.925729
 P     0.228883    -1.336966    -0.592186
 P    -1.572568     1.171147     0.381784
 C    -1.938600    -2.073542     1.041798
 O    -2.068306    -2.808902     1.927103
 H    -0.901195     3.447644    -0.131283
 H    -0.862132     2.365265    -1.537908
 C     0.933805     2.326345    -0.305585
 H     1.165775     2.377750     0.770188
 H     1.259758     1.336799    -0.659880
 C     1.757573     3.382373    -1.046352
 H     1.419945     4.379012    -0.703261
 C     3.230976     3.236311    -0.682369
 H     3.387604     3.320117     0.404401
 H     3.849104     4.003571    -1.173881
 H     3.613161     2.249942    -0.996729
 C     1.564264     3.312666    -2.557132
 H     2.188946     4.058267    -3.073134
 H     0.520390     3.497850    -2.851023
 H     1.843146     2.316222    -2.938725
 C    -3.176535     3.238442     1.051875
 H    -2.435338     3.433167     1.844506
 H    -3.085814     4.018546     0.276594
 H    -4.183722     3.304818     1.489489
 C    -1.291971     0.621160     2.963583
 H    -2.382277     0.461820     2.995793
 H    -0.805515    -0.365460     2.908806
 H    -0.977832     1.125571     3.888650
 H     1.106346    -1.829674     1.517490
 H     1.210353    -0.106810     1.165111
 C     2.916907    -1.266916     0.460003
 H     3.084527    -2.246076    -0.017148
 H     3.238711    -0.500851    -0.266736
 C     3.809415    -1.153091     1.699358
 H     3.470649    -1.919111     2.422252
 C     5.257690    -1.458272     1.335332
 H     5.356879    -2.454590     0.876989
 H     5.910610    -1.427780     2.221274
 H     5.643402    -0.718738     0.613452
 C     3.693068     0.212114     2.369271
 H     4.356443     0.280777     3.245105
 H     2.669787     0.422646     2.714559
 H     3.979762     1.015185     1.669388
 C    -0.260566    -3.666519    -1.736385
 H    -1.309206    -3.425648    -1.489246
 H    -0.094633    -3.479093    -2.811668
 H    -0.074039    -4.729377    -1.528950
 C     1.940357    -0.941978    -2.678374
 H     2.794147    -0.275769    -2.473430
 H     2.235725    -1.979616    -2.461424
 H     1.685039    -0.860307    -3.745975
