 108
scf done:    -3439.554377
 C    -1.095231     2.979133     1.342313
 H    -0.957265     3.977436     0.908668
 H    -2.102095     2.895660     1.771983
 C     0.009451     2.539673     2.243671
 H     0.857464     3.234803     2.319341
 H    -0.315770     2.248890     3.255026
 H     0.488350     1.533964     1.881562
Co    -0.339726     1.491065     0.342048
 C    -1.728113    -1.306035     2.063275
 C    -3.545723     0.716073     1.285527
 C    -2.400670    -0.948880    -0.732119
 C     1.154264    -1.067060    -1.437670
 C     2.529203     1.472637    -1.393657
 C     2.567765    -0.201427     0.973138
 P     1.426224     0.409107    -0.361907
 P    -1.909928     0.016851     0.770597
 C    -0.538509     2.326029    -1.121931
 O    -0.751694     2.850907    -2.136607
 H    -2.684780    -1.827722     2.237994
 H    -1.490145    -0.760842     2.991919
 C    -0.623217    -2.290543     1.720163
 H    -0.938321    -2.901366     0.856229
 H     0.253535    -1.715724     1.379174
 C    -0.172291    -3.232006     2.839223
 H    -1.062226    -3.780707     3.200888
 C     0.819273    -4.251826     2.288494
 H     0.386459    -4.826777     1.454726
 H     1.138980    -4.966625     3.062336
 H     1.725144    -3.748674     1.908213
 C     0.430297    -2.478028     4.019745
 H     0.758660    -3.172127     4.808614
 H    -0.285149    -1.777548     4.475429
 H     1.311583    -1.894853     3.702077
 H    -3.364219     1.272274     2.221814
 H    -4.231604    -0.107679     1.540985
 C    -4.143698     1.641059     0.234692
 H    -3.342966     2.288314    -0.160076
 H    -4.501127     1.043896    -0.624293
 C    -5.294589     2.518730     0.729857
 H    -4.908872     3.115139     1.578818
 C    -5.727036     3.488845    -0.363016
 H    -4.882630     4.105311    -0.707924
 H    -6.521142     4.165886    -0.011243
 H    -6.118550     2.943035    -1.237974
 C    -6.476675     1.697107     1.231881
 H    -7.297929     2.346386     1.573519
 H    -6.199469     1.044522     2.073578
 H    -6.873997     1.054831     0.427170
 H    -1.495579    -1.468587    -1.080803
 H    -2.600905    -0.181950    -1.497080
 C    -3.551933    -1.933467    -0.608627
 H    -3.360770    -2.623711     0.231117
 H    -4.484437    -1.399053    -0.352847
 C    -3.800881    -2.770918    -1.867351
 H    -2.854467    -3.293911    -2.106516
 C    -4.865067    -3.829059    -1.600961
 H    -4.586072    -4.478562    -0.756331
 H    -5.025483    -4.470778    -2.481246
 H    -5.831058    -3.357944    -1.353155
 C    -4.176895    -1.911071    -3.068810
 H    -4.366635    -2.532193    -3.957889
 H    -3.385503    -1.193211    -3.330287
 H    -5.095324    -1.335251    -2.863257
 H     0.549425    -0.686351    -2.279556
 H     0.477169    -1.705040    -0.852399
 C     2.322793    -1.893438    -1.950178
 H     3.056175    -1.245473    -2.459099
 H     2.854738    -2.353981    -1.099025
 C     1.910572    -3.012311    -2.913470
 H     1.403381    -2.537257    -3.774471
 C     3.144445    -3.738339    -3.436810
 H     3.846803    -3.041832    -3.920841
 H     2.875448    -4.511210    -4.173247
 H     3.683760    -4.236882    -2.613857
 C     0.930826    -3.993598    -2.276938
 H     0.695714    -4.819458    -2.965763
 H    -0.022245    -3.515220    -2.004477
 H     1.357544    -4.435317    -1.360068
 H     1.947053     1.693742    -2.305033
 H     3.426922     0.916090    -1.704175
 C     2.881759     2.773435    -0.684639
 H     1.958835     3.158633    -0.217355
 H     3.584536     2.572560     0.145551
 C     3.475447     3.857617    -1.584136
 H     2.738777     4.048732    -2.386931
 C     3.656602     5.151309    -0.799345
 H     2.705953     5.484438    -0.354812
 H     4.033138     5.963354    -1.440624
 H     4.379850     5.013961     0.022373
 C     4.783685     3.422246    -2.234512
 H     5.198559     4.220628    -2.869422
 H     4.653779     2.531675    -2.867910
 H     5.539873     3.180658    -1.467833
 H     2.136984    -1.156445     1.318332
 H     2.440952     0.497521     1.814246
 C     4.048267    -0.381542     0.661740
 H     4.178555    -0.898281    -0.300599
 H     4.525170     0.606292     0.537054
 C     4.812905    -1.166538     1.732313
 H     4.335134    -2.162590     1.811011
 C     6.260064    -1.375316     1.302124
 H     6.321219    -1.880167     0.325250
 H     6.813730    -1.985470     2.032419
 H     6.784181    -0.409328     1.210425
 C     4.740113    -0.506350     3.104673
 H     5.320361    -1.074147     3.848223
 H     3.707417    -0.436336     3.478120
 H     5.153932     0.515734     3.069499
