 112
scf done:    -3891.688714
 C    -0.496234     0.164300    -3.482638
 H    -0.424574    -0.490712    -4.359752
 H    -1.479834     0.652838    -3.474651
 C     0.657266     1.101585    -3.310348
 H     1.451574     0.992231    -4.062214
 H     0.382286     2.163800    -3.227044
 H     1.222747     0.914883    -2.311323
Co     0.261835    -0.463087    -1.798832
 C    -2.724157     1.267666    -1.179475
 C    -2.654437    -1.608013    -1.291839
 C    -1.743134    -0.165893     1.145111
 C     1.459098    -2.192434     0.949767
 C     3.349834    -1.145059    -1.003218
 C     2.117026     0.464945     1.137288
 P     1.704699    -0.762881    -0.199239
 P    -1.609507    -0.143282    -0.752446
 C     0.523089    -2.000105    -2.514279
 O     0.576592    -3.039589    -3.025908
 H    -3.629321     1.211798    -0.555791
 H    -3.044001     1.127490    -2.223093
 C    -2.031315     2.611071    -0.992896
 H    -1.395927     2.576533    -0.095571
 H    -1.340978     2.789651    -1.836665
 C    -2.978440     3.801415    -0.846343
 H    -3.633625     3.583527     0.017806
 C    -2.188977     5.064435    -0.525952
 H    -1.579846     4.934315     0.382441
 H    -2.854002     5.927459    -0.366508
 H    -1.503547     5.321152    -1.351746
 C    -3.858078     3.991290    -2.075858
 H    -4.536203     4.850067    -1.952569
 H    -4.480461     3.105538    -2.274485
 H    -3.243855     4.177389    -2.973484
 H    -2.752962    -1.433870    -2.374937
 H    -1.994229    -2.479408    -1.197072
 C    -3.986636    -1.844193    -0.657367
 C    -5.099493    -1.099184    -1.070685
 H    -4.981564    -0.386642    -1.890134
 C    -4.151350    -2.802788     0.367191
 C    -3.031008    -3.715409     0.781832
 H    -2.131425    -3.172671     1.110235
 H    -2.717204    -4.360982    -0.054709
 H    -3.342485    -4.369402     1.607619
 C    -6.341576    -1.242257    -0.460806
 H    -7.188903    -0.641113    -0.798605
 C    -5.406379    -2.931980     0.973953
 H    -5.531655    -3.667848     1.772984
 C    -6.493350    -2.155203     0.580461
 H    -7.459420    -2.275765     1.076013
 H    -2.040070    -1.193499     1.399084
 H    -0.719159    -0.037643     1.514235
 C    -2.674387     0.802640     1.820904
 C    -4.049425     0.533415     1.846693
 H    -4.413802    -0.398271     1.413819
 C    -2.207136     1.989102     2.428303
 C    -0.744751     2.309522     2.539532
 H    -0.230065     2.318481     1.567969
 H    -0.221984     1.576683     3.176507
 H    -0.593515     3.299233     2.991421
 C    -4.961099     1.425064     2.402299
 H    -6.026211     1.182191     2.394867
 C    -3.138637     2.878645     2.977851
 H    -2.772424     3.800592     3.438016
 C    -4.505447     2.616348     2.960073
 H    -5.206799     3.333141     3.393736
 H     0.670247    -1.880284     1.655001
 H     2.379875    -2.293262     1.546510
 C     1.067598    -3.503391     0.292259
 H     0.117622    -3.353759    -0.243369
 H     1.799415    -3.780202    -0.487398
 C     0.917169    -4.680144     1.259485
 H     0.185931    -4.382183     2.035551
 C     0.355178    -5.891552     0.524442
 H    -0.605707    -5.658305     0.041112
 H     0.194481    -6.739418     1.208099
 H     1.048074    -6.224621    -0.265734
 C     2.226825    -5.030974     1.958004
 H     2.099645    -5.893302     2.630420
 H     2.614489    -4.198559     2.564718
 H     3.001344    -5.298549     1.219058
 H     3.269139    -2.213568    -1.261840
 H     3.317572    -0.611127    -1.960396
 C     4.619330    -0.865998    -0.263038
 C     5.064856    -1.747958     0.730604
 H     4.481736    -2.648769     0.941340
 C     5.395574     0.274208    -0.567705
 C     4.983770     1.242101    -1.639610
 H     3.975875     1.647475    -1.462735
 H     4.976638     0.763098    -2.632701
 H     5.677240     2.092429    -1.684222
 C     6.246709    -1.519324     1.431146
 H     6.572193    -2.224308     2.199656
 C     6.587460     0.480159     0.135859
 H     7.192032     1.359264    -0.103251
 C     7.014882    -0.397666     1.129256
 H     7.948673    -0.206521     1.663163
 H     1.228938     0.471310     1.790967
 H     2.924610     0.012605     1.728660
 C     2.466054     1.869774     0.742661
 C     1.677210     2.546992    -0.193617
 H     0.821035     2.022789    -0.622895
 C     3.551507     2.541595     1.343261
 C     4.364344     1.908377     2.435080
 H     4.791679     0.941963     2.130832
 H     3.749492     1.728052     3.332322
 H     5.198690     2.559685     2.728939
 C     1.968535     3.850328    -0.586425
 H     1.333783     4.353361    -1.319973
 C     3.838807     3.846785     0.927466
 H     4.686944     4.366788     1.381528
 C     3.068531     4.499465    -0.032767
 H     3.320352     5.519022    -0.334247
