  88
scf done:    -3974.187576
 C    -1.180671    -0.606840    -3.214633
 H    -1.036268    -1.422723    -3.933255
 H    -2.244910    -0.345092    -3.147496
 C    -0.253639     0.548246    -3.391204
 H     0.542089     0.402781    -4.134013
 H    -0.748851     1.513280    -3.580457
 H     0.320537     0.798088    -2.402062
Co    -0.153017    -0.670920    -1.562597
 C    -1.657534    -0.849413     1.489859
 C    -2.046547     1.664186     0.204928
 C    -3.452391    -0.648884    -0.667391
 C     2.274870    -1.643868     0.672576
 C     3.016598     0.263170    -1.342915
 C     1.433986     1.137628     0.867100
 P     1.577489    -0.252128    -0.320023
 P    -1.754263    -0.107130    -0.202752
 C     0.172160    -2.333114    -1.763726
 O     0.299421    -3.484092    -1.843231
 H    -2.571806    -0.574976     2.043346
 H    -0.809301    -0.358961     1.991847
 C    -1.486411    -2.358871     1.484761
 H    -2.272902    -2.816651     0.861885
 H    -0.535588    -2.621123     0.991427
 C    -1.540101    -3.001005     2.874120
 H    -2.550988    -2.814627     3.283650
 C    -1.350187    -4.508885     2.759755
 H    -2.088294    -4.955818     2.076118
 H    -1.450299    -5.004511     3.737746
 H    -0.348376    -4.747102     2.364428
 C    -0.531542    -2.397757     3.846252
 H    -0.578703    -2.898481     4.825568
 H    -0.707438    -1.324886     4.017333
 H     0.498367    -2.515042     3.470469
 C    -2.112442     2.560991    -0.872259
 H    -2.025229     2.180009    -1.892635
 C    -2.154815     2.179768     1.501340
 H    -2.098899     1.518724     2.366852
 C    -2.286265     3.925100    -0.670696
 H    -2.343381     4.627248    -1.504546
 C    -2.316546     3.546876     1.723260
 H    -2.376030     3.959581     2.731935
 C    -2.379751     4.402236     0.633025
 F    -2.522487     5.710549     0.835917
 C    -4.604726     0.055954    -0.299153
 H    -4.515711     1.002185     0.240052
 C    -3.595281    -1.854557    -1.367661
 H    -2.699847    -2.397008    -1.680947
 C    -5.871664    -0.428354    -0.615372
 H    -6.778042     0.114206    -0.340184
 C    -4.855278    -2.356936    -1.679649
 H    -4.979319    -3.295243    -2.223324
 C    -5.979065    -1.633081    -1.299589
 F    -7.188006    -2.101297    -1.603787
 H     2.261187    -2.500650    -0.021392
 H     1.517564    -1.878748     1.437508
 C     3.661816    -1.467977     1.270380
 H     4.353201    -1.139028     0.478339
 H     3.658513    -0.656694     2.020017
 C     4.236988    -2.735057     1.910969
 H     4.282142    -3.508896     1.121728
 C     5.659235    -2.475173     2.393942
 H     6.301231    -2.110283     1.577184
 H     6.118552    -3.388687     2.801857
 H     5.669199    -1.713159     3.191282
 C     3.365964    -3.273504     3.039973
 H     3.831629    -4.150568     3.515011
 H     2.372772    -3.586485     2.684974
 H     3.220240    -2.511110     3.824542
 C     3.996169     1.161713    -0.900183
 H     3.908636     1.622244     0.086411
 C     3.151577    -0.312237    -2.612835
 H     2.377653    -1.001817    -2.961275
 C     5.085184     1.482234    -1.705551
 H     5.854030     2.184012    -1.377161
 C     4.241048    -0.009415    -3.424397
 H     4.359420    -0.452285    -4.414970
 C     5.193594     0.888866    -2.958460
 F     6.233136     1.192580    -3.730542
 C     1.397962     0.966268     2.254712
 H     1.557770    -0.019455     2.695886
 C     1.216385     2.423488     0.346972
 H     1.218414     2.577200    -0.735543
 C     1.148146     2.043376     3.105702
 H     1.107885     1.917898     4.189181
 C     0.988530     3.509569     1.180730
 H     0.810325     4.510233     0.784163
 C     0.944619     3.300065     2.554998
 F     0.680319     4.328173     3.358196
