 100
scf done:    -3583.219375
 C     0.522852     0.550581    -3.611021
 H    -0.190021     0.681893    -4.433678
 H     1.325209     1.296618    -3.700298
 C     0.984487    -0.855791    -3.398525
 H     0.551930    -1.590677    -4.091451
 H     2.077495    -0.977983    -3.370717
 H     0.675546    -1.272788    -2.347680
Co    -0.234315     0.141698    -1.856887
 C     2.918443     1.311858    -1.217274
 O     1.025190     3.075555    -1.402889
 O     1.007428     1.582448     0.697932
 C    -1.760855     0.095738     1.147107
 O    -1.985457    -2.073425    -0.296581
 O     0.352363    -1.661930     0.674196
 P    -0.866554    -0.872089    -0.109053
 P     1.115925     1.487422    -0.950785
 C    -1.821663     0.573260    -2.352443
 O    -2.857732     0.992463    -2.656042
 H     3.433968     2.217991    -0.859015
 H     3.039150     1.309545    -2.312296
 C     3.483961     0.042971    -0.596379
 H     3.373133     0.094557     0.499332
 H     2.868540    -0.821640    -0.903254
 C     4.951026    -0.230550    -0.937000
 H     5.527417     0.675539    -0.669790
 C     5.486865    -1.389115    -0.104663
 H     5.367760    -1.201061     0.973902
 H     6.555655    -1.566193    -0.301404
 H     4.947006    -2.321119    -0.339051
 C     5.159983    -0.496947    -2.423790
 H     6.222083    -0.678258    -2.649805
 H     4.831104     0.345347    -3.050697
 H     4.596703    -1.391411    -2.740189
 C    -0.183212     3.600735    -1.933689
 H     0.091457     4.562977    -2.395230
 H    -0.554023     2.933249    -2.728118
 C    -1.254840     3.798796    -0.880568
 H    -2.189067     4.089432    -1.391969
 H    -1.462110     2.820877    -0.412631
 C    -0.898650     4.821681     0.186766
 H    -0.779228     5.813252    -0.284905
 H     0.090081     4.568519     0.602171
 C    -1.922660     4.900630     1.305990
 H    -2.920191     5.165794     0.920051
 H    -2.020376     3.931414     1.820743
 H    -1.647052     5.651959     2.061657
 C     1.830925     2.363591     1.540437
 H     2.896780     2.199286     1.300077
 H     1.620615     3.435409     1.387619
 C     1.553430     1.950533     2.970437
 H     2.133436     2.603078     3.645996
 H     0.488920     2.144965     3.190431
 C     1.875564     0.485344     3.232878
 H     2.960766     0.325425     3.099307
 H     1.387171    -0.120747     2.453524
 C     1.452627     0.008247     4.611719
 H     1.934259     0.593233     5.411988
 H     0.362980     0.103422     4.747310
 H     1.714507    -1.049161     4.771623
 H    -2.510311     0.648886     0.553408
 H    -1.024324     0.840742     1.481697
 C    -2.441902    -0.630310     2.298431
 H    -3.009424    -1.485340     1.898176
 H    -1.686134    -1.048916     2.984252
 C    -3.388273     0.258623     3.110210
 H    -4.131440     0.677337     2.405335
 C    -4.138837    -0.572496     4.144020
 H    -4.694718    -1.396756     3.670741
 H    -4.858561     0.040501     4.708418
 H    -3.438957    -1.016975     4.871600
 C    -2.662234     1.424146     3.771669
 H    -3.358537     2.054301     4.346031
 H    -2.163851     2.071273     3.034842
 H    -1.890943     1.058301     4.470523
 C    -1.954419    -2.913692    -1.437850
 H    -1.531091    -2.347692    -2.288359
 H    -1.293151    -3.776632    -1.239831
 C    -3.359307    -3.374461    -1.755726
 H    -3.301081    -4.096457    -2.589392
 H    -3.755256    -3.933433    -0.889305
 C    -4.302893    -2.234829    -2.112216
 H    -3.902260    -1.689255    -2.983452
 H    -4.302785    -1.505911    -1.285855
 C    -5.721476    -2.698052    -2.396505
 H    -5.753344    -3.406021    -3.240851
 H    -6.158446    -3.210100    -1.523663
 H    -6.378477    -1.852035    -2.648451
 C     0.146856    -2.655153     1.668770
 H     0.161922    -2.176939     2.664413
 H    -0.840622    -3.123946     1.532454
 C     1.245663    -3.690501     1.576249
 H     1.008829    -4.504350     2.284417
 H     1.221037    -4.138112     0.566929
 C     2.633925    -3.138501     1.864221
 H     2.644450    -2.706123     2.880707
 H     2.827198    -2.298446     1.178775
 C     3.731303    -4.181180     1.737132
 H     3.568052    -5.024314     2.427980
 H     3.769893    -4.597044     0.717111
 H     4.722212    -3.756960     1.958068
