 102
scf done:    -3809.265228
 C     1.388436    -3.205813     1.589307
 H     1.326541    -4.291051     1.449129
 H     2.420278    -2.937103     1.853333
 C     0.326853    -2.613166     2.458102
 H    -0.364311    -3.342124     2.903942
 H     0.699267    -1.935056     3.240723
 H    -0.403954    -1.919785     1.863083
Co     0.389161    -2.124412     0.315112
 C     2.946380    -0.159142     1.537747
 O     3.305352    -1.868260    -0.515406
 O     2.066670     0.356594    -1.014622
 C    -0.955717     0.130420    -1.933866
 O    -2.510948    -1.770959    -1.092239
 O    -1.884915    -0.044589     0.707518
 P    -1.201297    -0.974349    -0.473673
 P     2.090015    -0.907059     0.061033
 C     0.254833    -3.437744    -0.788201
 O     0.268356    -4.290621    -1.566691
 H     2.888516    -0.955859     2.299239
 H     4.016411    -0.023669     1.328654
 C     2.346240     1.114456     2.057865
 C     3.175574     2.202184     2.363361
 H     4.255790     2.112267     2.217698
 C     0.966869     1.250458     2.246993
 H     0.303644     0.421617     1.986231
 C     2.635955     3.386402     2.853546
 H     3.292956     4.225714     3.094914
 C     0.407531     2.438061     2.735956
 C    -1.077689     2.559435     2.902941
 H    -1.579931     2.529201     1.923715
 H    -1.479484     1.723037     3.493911
 H    -1.352928     3.499104     3.401833
 C     1.259592     3.503935     3.041005
 H     0.838946     4.435907     3.428436
 C     4.365898    -1.530008    -1.380563
 H     4.561693    -2.436782    -1.976608
 H     4.048461    -0.747138    -2.088549
 C     5.639701    -1.123123    -0.658684
 H     6.422803    -0.969464    -1.422465
 H     5.507183    -0.139268    -0.173742
 C     6.108011    -2.138980     0.372696
 H     6.296999    -3.102398    -0.132389
 H     5.282756    -2.333720     1.077205
 C     7.348423    -1.696044     1.130094
 H     8.195879    -1.517913     0.448378
 H     7.167195    -0.757063     1.678684
 H     7.666177    -2.451175     1.864753
 C     2.938258     1.478978    -1.047234
 H     2.488022     2.289328    -0.448866
 H     3.904743     1.234915    -0.577750
 C     3.162852     1.941571    -2.471365
 H     3.918313     2.746913    -2.436819
 H     3.618833     1.120961    -3.053063
 C     1.915023     2.443337    -3.182212
 H     1.465883     3.262206    -2.594479
 H     1.159465     1.642833    -3.196449
 C     2.186945     2.914629    -4.600707
 H     2.915149     3.741918    -4.618469
 H     2.598826     2.101653    -5.220427
 H     1.267059     3.270199    -5.088555
 H     0.135852     0.175046    -2.051999
 H    -1.384790    -0.412801    -2.787172
 C    -1.528689     1.504732    -1.798736
 C    -2.723507     1.861427    -2.428142
 H    -3.239119     1.132225    -3.058626
 C    -0.881652     2.449960    -0.991444
 H     0.046174     2.165068    -0.488122
 C    -3.261230     3.134096    -2.241091
 H    -4.199452     3.405202    -2.731749
 C    -1.399010     3.733256    -0.803993
 C    -0.666008     4.747527     0.025372
 H     0.159682     4.289483     0.587003
 H    -0.241223     5.540705    -0.611813
 H    -1.337079     5.239330     0.746606
 C    -2.608401     4.061027    -1.434062
 H    -3.034814     5.058665    -1.295723
 C    -2.979017    -2.983377    -0.520622
 H    -2.725343    -3.802569    -1.215328
 H    -2.447301    -3.191617     0.423866
 C    -4.475573    -2.916554    -0.300600
 H    -4.799693    -3.882532     0.125316
 H    -4.694865    -2.155160     0.467237
 C    -5.270404    -2.609237    -1.561702
 H    -5.087270    -3.402827    -2.307574
 H    -4.875788    -1.681733    -2.008421
 C    -6.761884    -2.470771    -1.305763
 H    -7.185242    -3.393911    -0.877758
 H    -6.968965    -1.655481    -0.592998
 H    -7.314828    -2.249707    -2.231224
 C    -3.194734     0.504658     0.639220
 H    -3.113320     1.594378     0.493493
 H    -3.731048     0.097608    -0.232365
 C    -3.949055     0.185595     1.911500
 H    -3.937067    -0.907074     2.067024
 H    -3.411632     0.620663     2.770304
 C    -5.382701     0.693778     1.876936
 H    -5.904115     0.247907     1.010699
 H    -5.378624     1.782518     1.692122
 C    -6.157343     0.391255     3.149077
 H    -6.209034    -0.693545     3.335099
 H    -5.677694     0.852163     4.027378
 H    -7.189381     0.769422     3.096170
