  96
scf done:    -4080.435745
 C    -1.075282    -3.153993    -1.553088
 H    -0.877965    -4.195001    -1.269002
 H    -2.157394    -3.013104    -1.692167
 C    -0.228106    -2.641944    -2.672669
 H     0.502452    -3.361514    -3.067530
 H    -0.789340    -2.199481    -3.509855
 H     0.450416    -1.751312    -2.338810
Co    -0.031362    -1.779093    -0.652364
 C    -2.817289    -0.203129    -1.897372
 C    -2.983231    -1.137737     0.832579
 C    -1.503255     1.196893     0.306691
 C     2.035974    -0.065992     1.480549
 C     3.186131    -0.954667    -1.035177
 C     1.473929     1.290724    -1.086881
 P     1.591580    -0.375850    -0.324414
 P    -1.745752    -0.493879    -0.373695
 C     0.453019    -2.810782     0.621600
 O     0.706525    -3.447093     1.558781
 H    -2.328156     0.600345    -2.467824
 H    -2.695908    -1.122691    -2.488273
 C    -4.267937     0.062442    -1.654214
 C    -5.145130    -1.015233    -1.469212
 H    -4.769146    -2.035790    -1.576905
 C    -4.775827     1.357550    -1.498389
 H    -4.120432     2.218717    -1.640190
 C    -6.471627    -0.818824    -1.103641
 H    -7.149255    -1.657543    -0.935833
 C    -6.102228     1.574641    -1.130811
 H    -6.500038     2.581598    -0.992633
 C    -6.929436     0.479709    -0.922781
 F    -8.189381     0.677990    -0.525434
 C    -3.001001    -2.498627     1.146731
 H    -2.226227    -3.150624     0.741449
 C    -3.957433    -0.297873     1.387937
 H    -3.942981     0.770203     1.158701
 C    -3.997507    -3.005539     1.979692
 H    -4.005053    -4.069538     2.228908
 C    -4.969039    -0.792615     2.213494
 C    -6.043472     0.118624     2.732943
 H    -5.659982     1.135629     2.900656
 H    -6.870435     0.200173     2.007832
 H    -6.467855    -0.250725     3.677824
 C    -4.975754    -2.163404     2.500993
 H    -5.755316    -2.572152     3.150416
 C    -1.588202     2.375211    -0.441017
 H    -1.847121     2.347888    -1.499530
 C    -1.115242     1.283143     1.649927
 H    -1.046398     0.364494     2.241509
 C    -1.315995     3.603799     0.155010
 H    -1.388463     4.518131    -0.438608
 C    -0.825726     2.506922     2.260826
 C    -0.393669     2.552641     3.698146
 H    -0.356087     3.583458     4.077186
 H    -1.077762     1.976592     4.339577
 H     0.609644     2.112613     3.826307
 C    -0.942118     3.672611     1.494669
 H    -0.738140     4.642980     1.956094
 H     1.548811     0.874071     1.773965
 H     1.524378    -0.872236     2.023564
 C     3.500760    -0.077802     1.786382
 C     4.178634    -1.303621     1.855726
 H     3.609143    -2.233310     1.780946
 C     4.249529     1.096924     1.905925
 H     3.748211     2.067301     1.883883
 C     5.562085    -1.358625     1.975419
 H     6.096409    -2.309663     2.000237
 C     5.636894     1.062244     2.032926
 H     6.228725     1.975800     2.112740
 C     6.276595    -0.168763     2.041505
 F     7.609861    -0.209166     2.107550
 C     3.355058    -2.318515    -1.284032
 H     2.504980    -2.991239    -1.145921
 C     4.266065    -0.082991    -1.219449
 H     4.132020     0.987436    -1.045793
 C     4.600712    -2.800242    -1.684818
 H     4.732861    -3.866858    -1.882691
 C     5.526752    -0.555476    -1.587314
 C     6.701482     0.374175    -1.678377
 H     6.379673     1.418373    -1.797409
 H     7.307153     0.317798    -0.758367
 H     7.360069     0.116895    -2.521245
 C     5.677391    -1.929954    -1.820276
 H     6.656142    -2.318956    -2.115522
 C     1.001971     1.337642    -2.406875
 H     0.698452     0.413205    -2.905177
 C     1.830894     2.481151    -0.458483
 H     2.176919     2.471528     0.575436
 C     0.912042     2.552608    -3.074039
 H     0.549427     2.582445    -4.104536
 C     1.740489     3.716854    -1.114190
 C     2.116793     4.976957    -0.392802
 H     2.046823     5.856417    -1.047853
 H     1.453253     5.142057     0.471407
 H     3.146315     4.924365    -0.005122
 C     1.279317     3.736247    -2.431260
 H     1.201949     4.689816    -2.960692
