 100
scf done:    -4381.081927
 C    -0.994763    -2.662511    -2.378675
 H    -0.633435    -3.683384    -2.556074
 H    -2.094682    -2.660464    -2.389712
 C    -0.345334    -1.614950    -3.224785
 H     0.440947    -1.988553    -3.896285
 H    -1.048485    -0.990968    -3.797475
 H     0.208537    -0.803024    -2.594169
Co    -0.035932    -1.617158    -1.052326
 C    -2.998574    -0.038308    -1.605352
 C    -2.907437    -1.702882     0.731609
 C    -1.557891     0.811692     0.881549
 C     1.914665    -0.694433     1.499825
 C     3.244517    -0.946542    -1.117975
 C     1.734093     1.385014    -0.570563
 P     1.653843    -0.433562    -0.330283
 P    -1.809420    -0.599794    -0.268307
 C     0.511310    -3.016014    -0.253365
 O     0.804921    -3.962961     0.352361
 H    -2.469243     0.762006    -2.135831
 H    -3.026476    -0.916003    -2.268577
 C    -4.392684     0.357662    -1.244851
 C    -5.397584    -0.612693    -1.144455
 H    -5.155221    -1.658750    -1.348166
 C    -4.733458     1.689883    -0.980043
 H    -3.962086     2.456884    -1.053461
 C    -6.696103    -0.275716    -0.770745
 H    -7.480061    -1.030113    -0.682709
 C    -6.027659     2.046897    -0.614569
 H    -6.300279     3.083523    -0.407130
 C    -6.993635     1.054133    -0.505976
 F    -8.233981     1.386640    -0.134931
 C    -2.715588    -3.081375     0.613370
 H    -1.896737    -3.427175    -0.018022
 C    -3.962112    -1.247655     1.560622
 O    -4.140532     0.077986     1.658630
 C    -5.113167     0.597535     2.517927
 H    -6.128044     0.274072     2.231305
 H    -5.051934     1.688724     2.424332
 H    -4.921631     0.312702     3.567454
 C    -3.526707    -4.001856     1.275382
 H    -3.346430    -5.072102     1.157940
 C    -4.765923    -2.168934     2.242267
 H    -5.574203    -1.819040     2.884334
 C    -4.550128    -3.537379     2.093049
 H    -5.192851    -4.240620     2.628837
 C    -1.343673     0.524877     2.234119
 H    -1.397229    -0.517304     2.561632
 C    -1.458177     2.153422     0.469963
 O    -1.557148     2.396525    -0.856281
 C    -1.447905     3.711691    -1.328647
 H    -2.266017     4.350459    -0.950236
 H    -1.519807     3.654706    -2.422283
 H    -0.478338     4.157881    -1.058572
 C    -1.093407     1.525273     3.170261
 H    -0.937235     1.265971     4.219597
 C    -1.255501     3.168829     1.411405
 H    -1.205466     4.209456     1.091985
 C    -1.072230     2.854799     2.755667
 H    -0.902747     3.658054     3.476777
 H     1.147663    -0.081578     1.996485
 H     1.598804    -1.738585     1.636391
 C     3.270127    -0.498613     2.102798
 C     4.273821    -1.451954     1.883995
 H     4.050032    -2.337698     1.284859
 C     3.575659     0.608020     2.902625
 H     2.802141     1.347378     3.121488
 C     5.553629    -1.287159     2.404600
 H     6.340831    -2.022477     2.228691
 C     4.848817     0.786763     3.438138
 H     5.092514     1.647985     4.063027
 C     5.828000    -0.160335     3.169368
 F     7.057315     0.012630     3.661969
 C     3.234002    -2.087630    -1.920440
 H     2.281769    -2.613868    -2.028128
 C     4.455433    -0.228825    -0.987638
 O     4.430003     0.878203    -0.231077
 C     5.592149     1.631576    -0.040011
 H     6.387689     1.038723     0.442295
 H     5.313196     2.458480     0.624592
 H     5.969803     2.045311    -0.991639
 C     4.382484    -2.544838    -2.565705
 H     4.344396    -3.446913    -3.179607
 C     5.609738    -0.681024    -1.637022
 H     6.547833    -0.136173    -1.530240
 C     5.569275    -1.836024    -2.416858
 H     6.482077    -2.176959    -2.912155
 C     1.729861     2.306505     0.470645
 H     1.562446     1.964861     1.491109
 C     1.895757     1.865545    -1.886794
 O     1.834045     0.934615    -2.859813
 C     2.179042     1.268582    -4.173640
 H     1.476307     1.999789    -4.610350
 H     2.130926     0.337973    -4.752899
 H     3.203762     1.674068    -4.231125
 C     1.954687     3.665316     0.241749
 H     1.958713     4.363529     1.081299
 C     2.132641     3.220582    -2.126824
 H     2.287487     3.584786    -3.142823
 C     2.178011     4.114358    -1.054654
 H     2.375788     5.171840    -1.247076
