 108
scf done:    -4237.563944
 C     0.165143     0.313687    -3.162875
 H     0.054814     1.128483    -3.888882
 H     1.177028    -0.109721    -3.251497
 C    -0.924063    -0.708576    -3.194886
 H    -1.736683    -0.495481    -3.903404
 H    -0.582664    -1.745902    -3.338358
 H    -1.465708    -0.785456    -2.171211
Co    -0.629261     0.553004    -1.399240
 C     1.966908    -1.682309    -0.885616
 C     2.561794     1.186035    -1.236435
 C     1.421631     0.193935     1.376568
 C    -2.463858     1.555355     1.451254
 C    -3.806341     0.341054    -0.859707
 C    -2.378155    -1.174805     1.215321
 P    -2.198862     0.300638     0.095004
 P     1.271956     0.028949    -0.494397
 C    -0.916296     2.216193    -1.737662
 O    -0.945074     3.337979    -2.023019
 H     1.636514    -2.334704    -0.065649
 H     1.396804    -1.989595    -1.776318
 C     3.428303    -1.877111    -1.150932
 C     3.939976    -1.703871    -2.445042
 H     3.260563    -1.443678    -3.262200
 C     4.320793    -2.247583    -0.136844
 H     3.951627    -2.407665     0.876360
 C     5.296176    -1.863309    -2.720924
 H     5.696633    -1.726629    -3.726916
 C     5.678078    -2.414391    -0.394229
 H     6.372994    -2.697706     0.398189
 C     6.152852    -2.212414    -1.684233
 F     7.453108    -2.367402    -1.935702
 H     2.999511     0.618671    -2.068743
 H     1.951772     1.977007    -1.690162
 C     3.657413     1.768846    -0.401290
 C     4.929059     1.184402    -0.387914
 H     5.108890     0.294586    -0.991898
 C     3.432566     2.940518     0.352013
 C     2.120895     3.665147     0.277354
 H     1.256688     2.987155     0.297978
 H     2.030432     4.227470    -0.667374
 H     2.017951     4.384932     1.101763
 C     5.959591     1.709743     0.385369
 H     6.940329     1.228507     0.381516
 C     4.474245     3.449021     1.136493
 H     4.297032     4.350242     1.730203
 C     5.727897     2.840975     1.164842
 H     6.523637     3.259118     1.785967
 H     1.583215     1.269607     1.540553
 H     0.404503    -0.019714     1.733614
 C     2.431383    -0.594777     2.159611
 C     3.688456    -0.038679     2.426028
 H     3.905015     0.970656     2.077237
 C     2.135368    -1.879264     2.668851
 C     0.771965    -2.494529     2.542045
 H     0.366294    -2.457182     1.521766
 H     0.047297    -1.976045     3.192906
 H     0.783906    -3.549248     2.848455
 C     4.665415    -0.741890     3.122764
 H     5.639082    -0.279390     3.299441
 C     3.131433    -2.575810     3.364848
 H     2.902732    -3.573752     3.748923
 C     4.392624    -2.027026     3.584047
 H     5.150555    -2.596862     4.126824
 H    -3.416236     1.306604     1.945117
 H    -1.667568     1.350070     2.183690
 C    -2.415334     2.992248     1.038209
 C    -1.256998     3.745614     1.254843
 H    -0.408257     3.281573     1.761181
 C    -3.501868     3.620828     0.415762
 H    -4.436469     3.076307     0.263251
 C    -1.160853     5.068013     0.837219
 H    -0.254642     5.655106     0.993629
 C    -3.423990     4.942328    -0.012534
 H    -4.264032     5.434559    -0.505249
 C    -2.245792     5.647626     0.194040
 F    -2.161710     6.910988    -0.217468
 H    -3.977053     1.415445    -1.030798
 H    -3.548854    -0.062520    -1.845481
 C    -5.025880    -0.331350    -0.306993
 C    -5.747498     0.252946     0.742950
 H    -5.416343     1.210837     1.151365
 C    -5.485959    -1.549920    -0.855004
 C    -4.783461    -2.213873    -2.003946
 H    -3.728676    -2.426094    -1.773376
 H    -4.803567    -1.582499    -2.907529
 H    -5.264386    -3.168639    -2.254555
 C    -6.893988    -0.341832     1.264212
 H    -7.436483     0.139983     2.080812
 C    -6.643563    -2.130065    -0.324311
 H    -7.000211    -3.071144    -0.751509
 C    -7.345633    -1.543483     0.725599
 H    -8.245399    -2.022939     1.117989
 H    -1.529966    -1.098293     1.916282
 H    -3.285056    -1.007008     1.811678
 C    -2.405164    -2.538319     0.587131
 C    -1.462113    -2.878834    -0.388755
 H    -0.734243    -2.120622    -0.683549
 C    -3.350541    -3.502836     0.995457
 C    -4.332811    -3.227421     2.096277
 H    -4.955868    -2.346124     1.883539
 H    -3.817957    -3.043847     3.053544
 H    -5.008479    -4.081405     2.239638
 C    -1.459008    -4.131172    -0.996798
 H    -0.711664    -4.367023    -1.758296
 C    -3.341041    -4.753034     0.366523
 H    -4.079710    -5.498957     0.672591
 C    -2.415105    -5.071774    -0.624535
 H    -2.435901    -6.057630    -1.095001
