  60
scf done:    -3457.682902
 C    -0.742621    -4.015723    -0.199732
 H    -0.363418    -4.882168     0.354226
 H    -1.826759    -3.911397    -0.091794
 C    -0.216930    -3.878592    -1.587058
 H     0.481444    -4.668077    -1.898770
 H    -0.992105    -3.742368    -2.354560
 H     0.433839    -2.905970    -1.731331
Co     0.288849    -2.361028    -0.078309
 C    -1.659229     0.406908    -0.923716
 O    -2.860853    -1.860564     0.052176
 O    -1.494767    -0.300968     1.580067
 C     1.880820     0.388745     1.027095
 O     3.281388    -1.239422    -0.506418
 O     1.501899     0.296577    -1.556173
 P     1.700800    -0.807003    -0.343015
 P    -1.406551    -1.096926     0.123077
 C     1.072586    -2.981633     1.311799
 O     1.513903    -3.372511     2.307630
 H    -0.702094     0.950042    -0.871838
 H    -1.720680     0.006502    -1.948429
 C    -2.822224     1.304779    -0.638169
 C    -3.941395     1.314125    -1.478992
 H    -3.954447     0.668306    -2.361307
 C    -2.827945     2.151778     0.478959
 H    -1.968297     2.153162     1.151067
 C    -5.043512     2.123555    -1.214288
 H    -5.917990     2.134289    -1.867397
 C    -3.920225     2.967039     0.758827
 H    -3.933069     3.627380     1.627946
 C    -5.019576     2.940105    -0.091397
 F    -6.068810     3.718354     0.173272
 C    -4.078867    -1.378945     0.582661
 H    -3.923094    -0.523952     1.257182
 H    -4.752897    -1.065755    -0.228221
 H    -4.553731    -2.197948     1.144879
 C    -1.281513    -1.029172     2.771667
 H    -1.772339    -2.015574     2.741315
 H    -0.208636    -1.187259     2.961228
 H    -1.711786    -0.441667     3.594978
 H     0.854914     0.688329     1.291902
 H     2.263960    -0.211493     1.867551
 C     2.746675     1.576879     0.743375
 C     4.141517     1.488020     0.817165
 H     4.602634     0.538188     1.095023
 C     2.175253     2.794941     0.360336
 H     1.087614     2.880399     0.290739
 C     4.946869     2.584746     0.525118
 H     6.035362     2.527439     0.582335
 C     2.965650     3.902034     0.065115
 H     2.528108     4.857222    -0.230475
 C     4.346517     3.780779     0.151616
 F     5.112782     4.836065    -0.127480
 C     3.646082    -2.471476    -1.084285
 H     2.859509    -3.228871    -0.922865
 H     3.827634    -2.361678    -2.166773
 H     4.574572    -2.813409    -0.605519
 C     1.287458    -0.138069    -2.874197
 H     2.226930    -0.480985    -3.339890
 H     0.548918    -0.959438    -2.917707
 H     0.902597     0.713839    -3.451891
