  84
scf done:    -5761.174292
 C    -0.738338    -3.212078    -1.664008
 H    -0.548654    -4.280338    -1.503346
 H    -1.797971    -3.058015    -1.916439
 C     0.217290    -2.538737    -2.591331
 H     1.055707    -3.159827    -2.933231
 H    -0.252977    -2.050538    -3.459059
 H     0.737018    -1.623139    -2.086147
Co     0.154715    -1.959247    -0.465504
 C    -2.099065     0.109434    -1.779920
 C    -3.152006    -1.654981     0.359137
 C    -1.620247     0.504419     1.130336
 C     2.288994    -0.357055     1.784254
 C     3.291256    -0.927736    -0.845953
 C     1.393325     1.176943    -0.565247
 P     1.719181    -0.532174     0.014619
 P    -1.633268    -0.768130    -0.194370
 C     0.579927    -3.130951     0.711699
 O     0.772480    -3.868497     1.585405
 H    -1.252080     0.795230    -1.941226
 H    -1.977634    -0.698320    -2.520009
 C    -3.400393     0.811620    -2.021404
 C    -4.590707     0.090370    -2.187566
 H    -4.571814    -1.000028    -2.127996
 C    -3.454023     2.207245    -2.143916
 H    -2.533682     2.794458    -2.070510
 C    -5.800596     0.735405    -2.425004
 H    -6.730195     0.177281    -2.550190
 C    -4.656174     2.869665    -2.380309
 H    -4.700592     3.955869    -2.477322
 C    -5.820026     2.122428    -2.508520
 F    -6.975226     2.746741    -2.731406
 C    -3.128781    -3.042879     0.525904
 H    -2.209838    -3.587268     0.302977
 C    -4.317234    -0.956513     0.708382
 H    -4.349946     0.132036     0.633800
 C    -4.248793    -3.728842     0.989921
 H    -4.226640    -4.811735     1.121710
 C    -5.444690    -1.627496     1.167429
 H    -6.351644    -1.082093     1.432948
 C    -5.405172    -3.016211     1.298375
Cl    -6.804746    -3.858534     1.870752
 C    -2.116538     1.805753     1.021897
 H    -2.559651     2.150997     0.088891
 C    -1.081542     0.094488     2.358420
 H    -0.704909    -0.927605     2.460366
 C    -2.051764     2.690426     2.096855
 H    -2.434910     3.708168     2.004608
 C    -1.011321     0.964060     3.441263
 H    -0.589333     0.641719     4.394789
 C    -1.488071     2.269050     3.298747
Cl    -1.383697     3.368874     4.630781
 H     1.534874     0.250636     2.304231
 H     2.202615    -1.376169     2.190011
 C     3.675639     0.174804     1.965739
 C     4.764567    -0.707336     1.978972
 H     4.584264    -1.782617     1.904343
 C     3.936165     1.547287     2.057633
 H     3.109145     2.259767     2.059636
 C     6.072599    -0.243526     2.063036
 H     6.923282    -0.927020     2.066310
 C     5.239990     2.030270     2.141341
 H     5.450273     3.098754     2.214297
 C     6.294548     1.126272     2.136194
 F     7.543816     1.581988     2.209504
 C     3.572338    -2.266322    -1.137323
 H     2.814877    -3.024084    -0.918753
 C     4.255205     0.047004    -1.135569
 H     4.059307     1.096670    -0.906775
 C     4.795366    -2.634723    -1.692073
 H     5.018832    -3.679164    -1.915235
 C     5.476591    -0.305711    -1.696888
 H     6.231502     0.450830    -1.916056
 C     5.741817    -1.649142    -1.966484
Cl     7.266134    -2.095043    -2.652026
 C     0.964334     2.205653     0.276890
 H     0.927464     2.062493     1.358142
 C     1.383109     1.405119    -1.951391
 H     1.715921     0.618211    -2.633887
 C     0.520675     3.421835    -0.239468
 H     0.168725     4.210567     0.426791
 C     0.937609     2.608937    -2.482210
 H     0.918589     2.774052    -3.560593
 C     0.491959     3.610370    -1.616977
Cl    -0.138281     5.085417    -2.269126
