 110
scf done:    -3665.626954
 C    -1.401391     3.409126    -1.072618
 H    -1.366308     4.030929    -1.974922
 H    -2.450581     3.273887    -0.767356
 C    -0.489910     3.845834     0.025710
 H     0.177062     4.680733    -0.227372
 H    -0.990011     4.066477     0.982445
 H     0.225304     2.980271     0.361502
Co    -0.148329     1.919110    -0.981827
 C    -2.495464     1.297413     1.385888
 C    -3.101075     0.503967    -1.400771
 C    -1.492764    -1.143599     0.315208
 C     2.313742    -0.172664    -1.993022
 C     3.189018     2.018975    -0.383590
 C     1.853168    -0.180835     0.917792
 P     1.730501     0.904555    -0.580964
 P    -1.705842     0.626148    -0.180410
 C     0.110605     1.967273    -2.666724
 O     0.195324     1.928302    -3.823665
 H    -1.766134     1.062632     2.178355
 H    -2.492982     2.390590     1.266383
 C    -3.866392     0.826359     1.745530
 C    -4.992177     1.546618     1.327608
 H    -4.858948     2.485985     0.784137
 C    -4.065967    -0.365452     2.453992
 H    -3.194948    -0.922392     2.811906
 C    -6.272563     1.062049     1.578624
 H    -7.143676     1.628333     1.239625
 C    -5.344003    -0.870425     2.710582
 C    -5.525056    -2.143987     3.484983
 H    -4.651152    -2.804116     3.386773
 H    -5.660503    -1.935866     4.559585
 H    -6.412883    -2.697927     3.146604
 C    -6.450075    -0.144597     2.252038
 H    -7.458955    -0.524236     2.435173
 H    -2.600871     0.446634    -2.382097
 H    -3.575006     1.497554    -1.384453
 C    -4.137898    -0.603061    -1.268600
 H    -3.636629    -1.584064    -1.310573
 H    -4.633548    -0.558778    -0.286073
 C    -5.214918    -0.586542    -2.358927
 H    -4.700833    -0.633807    -3.337906
 C    -6.100603    -1.820909    -2.230175
 H    -5.510416    -2.749106    -2.289700
 H    -6.864685    -1.855784    -3.022407
 H    -6.624011    -1.821079    -1.259253
 C    -6.057924     0.683771    -2.332159
 H    -6.830102     0.661634    -3.116847
 H    -5.452604     1.588258    -2.493411
 H    -6.566930     0.788941    -1.360119
 H    -2.468040    -1.535672     0.647439
 H    -0.833404    -1.148509     1.197455
 C    -0.929975    -2.023655    -0.790503
 H    -1.500330    -1.860188    -1.720437
 H     0.098096    -1.705283    -1.027964
 C    -0.940086    -3.522319    -0.475790
 H    -1.990787    -3.802696    -0.271083
 C    -0.472251    -4.326275    -1.683610
 H    -1.087205    -4.112585    -2.571515
 H    -0.522955    -5.409157    -1.491052
 H     0.572327    -4.084815    -1.942339
 C    -0.120311    -3.867013     0.763333
 H    -0.150365    -4.948010     0.969960
 H    -0.487894    -3.349757     1.662122
 H     0.938211    -3.587353     0.631040
 H     1.431466    -0.746054    -2.311457
 H     2.526074     0.535421    -2.808776
 C     3.475134    -1.072929    -1.720942
 C     4.794721    -0.633841    -1.880519
 H     4.988173     0.361386    -2.288264
 C     3.260989    -2.370213    -1.238006
 H     2.234593    -2.731600    -1.136751
 C     5.858456    -1.459181    -1.521027
 H     6.885054    -1.106432    -1.647350
 C     4.313135    -3.209567    -0.865960
 C     4.048213    -4.574809    -0.300818
 H     3.016198    -4.899257    -0.495631
 H     4.730014    -5.326848    -0.725318
 H     4.197525    -4.581550     0.791972
 C     5.622439    -2.731317    -1.006080
 H     6.464026    -3.369654    -0.723209
 H     3.297932     2.552727    -1.342471
 H     4.081984     1.387656    -0.259616
 C     3.065018     3.019084     0.756383
 H     2.244511     3.715105     0.526081
 H     2.770441     2.504610     1.689807
 C     4.336965     3.827326     1.028636
 H     4.657136     4.270640     0.066722
 C     4.041542     4.967967     1.995646
 H     3.252530     5.630769     1.607498
 H     4.936673     5.581265     2.182291
 H     3.698637     4.576457     2.968204
 C     5.476819     2.958021     1.549455
 H     6.388066     3.554045     1.712125
 H     5.735053     2.144651     0.854700
 H     5.205253     2.497338     2.514420
 H     1.351322    -1.119560     0.633285
 H     1.187366     0.292018     1.657189
 C     3.218203    -0.486576     1.525110
 H     3.961325    -0.656510     0.733128
 H     3.578422     0.386521     2.096752
 C     3.217805    -1.714628     2.438428
 H     2.864065    -2.566496     1.827271
 C     4.634856    -2.033245     2.897799
 H     5.304803    -2.181919     2.036355
 H     4.663749    -2.944664     3.515525
 H     5.047291    -1.208729     3.503316
 C     2.269162    -1.564696     3.621902
 H     2.290715    -2.458156     4.265081
 H     1.227081    -1.417258     3.299164
 H     2.552523    -0.699227     4.244749
