 116
scf done:    -4838.840969
 C     0.173004     2.715154    -2.112071
 H    -0.561112     3.528020    -2.135213
 H     1.193777     3.072558    -2.296241
 C    -0.223242     1.477343    -2.793715
 H    -1.248643     1.452848    -3.187682
 H     0.488105     1.098156    -3.545045
 H    -0.198429     0.504931    -2.065339
Co    -0.042352     1.390650    -0.698085
 C     3.029004     0.487440    -1.865586
 C     3.180728     1.342671     0.780576
 C     1.841273    -1.217565     0.274610
 C    -2.467342     0.739808     1.673517
 C    -3.368647     0.719467    -0.978568
 C    -1.696077    -1.546175    -0.111812
 P    -1.812061     0.302278    -0.023058
 P     1.939856     0.514115    -0.334285
 C    -0.162703     2.610903     0.472221
 O    -0.248529     3.455284     1.265741
 H     2.515131    -0.124919    -2.614848
 H     2.981252     1.539258    -2.189655
 C     4.450947     0.071013    -1.664873
 C     5.427190     1.025512    -1.348149
 H     5.147900     2.080902    -1.306096
 C     4.844279    -1.272746    -1.716288
 H     4.103773    -2.032774    -1.961647
 C     6.740432     0.659649    -1.064732
 H     7.496724     1.402008    -0.803830
 C     6.153636    -1.657814    -1.444394
 H     6.461208    -2.704740    -1.478909
 C     7.085329    -0.684018    -1.108560
 F     8.339179    -1.049721    -0.819421
 C     4.151600     0.676086     1.560648
 O     4.244861    -0.653874     1.408805
 C     5.237111    -1.380408     2.069980
 H     5.117177    -2.421724     1.745557
 H     6.247529    -1.032172     1.795978
 H     5.123104    -1.333789     3.167840
 C     3.225401     2.751218     0.788618
 O     2.474451     3.374235    -0.137199
 C     2.287327     4.759676    -0.073994
 H     1.551750     5.004215    -0.850562
 H     3.223678     5.308784    -0.277344
 H     1.882451     5.066287     0.904102
 C     4.060284     3.461728     1.662796
 H     4.050828     4.550531     1.675153
 C     4.994033     1.375115     2.434575
 H     5.717942     0.841006     3.048348
 C     4.924011     2.761348     2.492605
 H     5.578983     3.307221     3.176056
 C     1.785254    -2.346538    -0.557920
 O     1.746564    -2.116952    -1.895529
 C     1.746368    -3.201212    -2.778497
 H     1.709868    -2.778209    -3.791358
 H     2.662522    -3.811495    -2.683291
 H     0.867431    -3.848525    -2.624170
 C     1.672348    -1.431439     1.655885
 O     1.533892    -0.312758     2.391293
 C     1.546172    -0.380901     3.784558
 H     1.481828     0.653077     4.146084
 H     2.479060    -0.835405     4.162586
 H     0.685873    -0.951670     4.175215
 C     1.679067    -2.715404     2.205096
 H     1.624236    -2.858489     3.283960
 C     1.778020    -3.641327    -0.024504
 H     1.766963    -4.511820    -0.678230
 C     1.756287    -3.813611     1.353635
 H     1.763580    -4.823589     1.770225
 H    -1.845025     0.210413     2.402384
 H    -2.248376     1.812497     1.757192
 C    -3.936756     0.508600     1.860209
 C    -4.820610     1.593620     1.782699
 H    -4.412162     2.596919     1.640507
 C    -4.487056    -0.768359     2.030009
 H    -3.826936    -1.632472     2.073699
 C    -6.199913     1.422483     1.856328
 H    -6.887187     2.267147     1.783454
 C    -5.863859    -0.959803     2.110613
 H    -6.295165    -1.954344     2.241135
 C    -6.706375     0.140010     2.015489
 F    -8.028822    -0.041197     2.079702
 C    -4.366987    -0.179014    -1.410347
 O    -4.236604    -1.466365    -1.044854
 C    -5.256800    -2.384151    -1.297852
 H    -4.921885    -3.336615    -0.866623
 H    -6.203838    -2.079381    -0.819158
 H    -5.431096    -2.527863    -2.379229
 C    -3.613389     2.090172    -1.212689
 O    -2.788380     2.950330    -0.589927
 C    -2.902384     4.328330    -0.793957
 H    -2.092410     4.785789    -0.212195
 H    -3.872317     4.715978    -0.434515
 H    -2.782062     4.596580    -1.857856
 C    -4.696477     2.532271    -1.982835
 H    -4.846157     3.594409    -2.171316
 C    -5.463720     0.254012    -2.168838
 H    -6.214410    -0.457930    -2.508782
 C    -5.605621     1.602300    -2.467329
 H    -6.458992     1.937509    -3.061565
 C    -1.659055    -2.110802    -1.403692
 O    -1.708883    -1.224670    -2.418854
 C    -1.904347    -1.667970    -3.728165
 H    -1.990258    -0.769179    -4.351732
 H    -1.055484    -2.273860    -4.090580
 H    -2.832295    -2.258628    -3.820842
 C    -1.578370    -2.437014     0.969520
 O    -1.525044    -1.910436     2.216776
 C    -1.622213    -2.753216     3.328951
 H    -1.644998    -2.100556     4.211777
 H    -0.756362    -3.431079     3.405264
 H    -2.548965    -3.353495     3.308329
 C    -1.548538    -3.824654     0.770173
 H    -1.472060    -4.500449     1.619803
 C    -1.626181    -3.490125    -1.615650
 H    -1.651193    -3.899538    -2.624958
 C    -1.586762    -4.340554    -0.515741
 H    -1.564209    -5.422534    -0.665268
