 100
scf done:    -4381.234465
 C     0.914907    -3.555626     1.100022
 H     0.934052    -4.527151     0.594435
 H     1.909354    -3.330576     1.508602
 C    -0.228018    -3.334571     2.033421
 H    -0.952686    -4.157913     2.088925
 H     0.061939    -3.023601     3.047946
 H    -0.907042    -2.434229     1.712365
Co    -0.067991    -2.127201     0.203076
 C     1.844523    -0.042845     2.118724
 O     3.049498    -1.327494     0.172234
 O     1.382545     0.542761    -0.545294
 C    -1.520317     0.094154    -1.902830
 O    -3.104384    -1.219377    -0.234190
 O    -1.538670     0.561410     0.847379
 P    -1.520421    -0.686283    -0.246919
 P     1.499354    -0.780710     0.465821
 C    -0.279694    -3.047644    -1.243311
 O    -0.343244    -3.609204    -2.251238
 H     0.897888     0.458052     2.376444
 H     1.922839    -0.925764     2.775897
 C     3.019308     0.872398     2.278138
 C     4.327667     0.373614     2.287160
 H     4.491312    -0.703116     2.221041
 C     2.834658     2.256765     2.364475
 H     1.821461     2.665158     2.368821
 C     5.421974     1.231319     2.335088
 H     6.446114     0.854057     2.326249
 C     3.916886     3.129486     2.408430
 H     3.779581     4.210970     2.446054
 C     5.199736     2.601064     2.379980
 F     6.247726     3.431073     2.380014
 C     3.321863    -2.193345    -0.853676
 C     2.757696    -2.027414    -2.116426
 H     2.082248    -1.188956    -2.296134
 C     4.201057    -3.244940    -0.598766
 H     4.629970    -3.351365     0.399142
 C     3.034279    -2.937651    -3.142040
 C     2.351249    -2.794649    -4.469686
 H     2.355733    -1.749570    -4.814637
 H     2.828830    -3.414616    -5.241153
 H     1.298066    -3.108746    -4.384331
 C     4.499782    -4.135942    -1.624286
 H     5.188907    -4.962859    -1.436389
 C     3.916825    -3.990639    -2.882878
 H     4.147346    -4.706755    -3.675566
 C     2.179624     1.649786    -0.688536
 C     3.562423     1.560268    -0.854332
 H     4.043955     0.583283    -0.830003
 C     1.539278     2.887065    -0.723475
 H     0.456628     2.926659    -0.597540
 C     4.328324     2.717921    -1.009753
 C     5.822682     2.635673    -1.122344
 H     6.300665     3.045760    -0.218327
 H     6.161030     1.597030    -1.238816
 H     6.192646     3.217655    -1.980356
 C     2.298899     4.041220    -0.900930
 H     1.801834     5.014137    -0.928582
 C     3.681282     3.961334    -1.034125
 H     4.271397     4.872785    -1.160002
 H    -0.510891     0.522776    -1.987956
 H    -1.560433    -0.771807    -2.584197
 C    -2.586705     1.099557    -2.211885
 C    -3.900930     0.696803    -2.478055
 H    -4.142811    -0.367457    -2.495412
 C    -2.297451     2.468383    -2.196046
 H    -1.274037     2.799448    -2.007530
 C    -4.909352     1.633429    -2.681269
 H    -5.940081     1.332473    -2.876885
 C    -3.294574     3.418525    -2.390968
 H    -3.082067     4.487909    -2.354804
 C    -4.592528     2.984075    -2.619870
 F    -5.565595     3.887608    -2.771287
 C    -3.460076    -2.185199     0.675885
 C    -3.585801    -1.861666     2.024520
 H    -3.399090    -0.833920     2.344848
 C    -3.673404    -3.487643     0.227445
 H    -3.544669    -3.715206    -0.831851
 C    -3.934016    -2.844321     2.959786
 C    -4.066909    -2.486848     4.411493
 H    -4.262901    -3.374176     5.028968
 H    -3.151041    -2.005082     4.787964
 H    -4.893129    -1.775561     4.570270
 C    -4.024610    -4.465272     1.152586
 H    -4.192023    -5.491188     0.816260
 C    -4.151969    -4.148907     2.505762
 H    -4.422647    -4.928539     3.222287
 C    -2.304138     1.697025     0.935513
 C    -3.688114     1.691463     0.752911
 H    -4.191017     0.763312     0.482870
 C    -1.639735     2.871498     1.283234
 H    -0.561421     2.841172     1.445705
 C    -4.418768     2.876450     0.869788
 C    -5.900053     2.887767     0.627310
 H    -6.139203     3.441991    -0.294025
 H    -6.297485     1.869497     0.517407
 H    -6.436086     3.380000     1.453360
 C    -2.368032     4.052027     1.410693
 H    -1.851384     4.976856     1.678986
 C    -3.743090     4.059576     1.198283
 H    -4.304836     4.992460     1.292471
