 100
scf done:    -4381.088273
 C    -0.683517    -3.203655    -1.640657
 H    -0.472285    -4.271611    -1.504417
 H    -1.745688    -3.064205    -1.889988
 C     0.257255    -2.491770    -2.555567
 H     1.110869    -3.085770    -2.908573
 H    -0.224272    -1.999143    -3.415081
 H     0.753983    -1.573827    -2.034066
Co     0.184912    -1.957234    -0.418369
 C    -2.008375     0.183730    -1.688314
 C    -3.154824    -1.676575     0.321549
 C    -1.627776     0.431867     1.253580
 C     2.266681    -0.272932     1.823788
 C     3.315855    -0.904048    -0.782552
 C     1.389847     1.187361    -0.569103
 P     1.735357    -0.501518     0.050121
 P    -1.616287    -0.774721    -0.127249
 C     0.631893    -3.130896     0.745304
 O     0.835072    -3.873351     1.614657
 H    -1.134676     0.844879    -1.797762
 H    -1.892920    -0.599031    -2.455624
 C    -3.274010     0.942116    -1.946893
 C    -4.479599     0.274492    -2.203039
 H    -4.499753    -0.817460    -2.196311
 C    -3.276788     2.343749    -1.993815
 H    -2.342921     2.890627    -1.835511
 C    -5.655253     0.974042    -2.459057
 H    -6.596705     0.456578    -2.652228
 C    -4.444172     3.060240    -2.247985
 H    -4.449348     4.151236    -2.283083
 C    -5.624680     2.363028    -2.470002
 F    -6.747911     3.040308    -2.711874
 C    -4.346265    -0.996989     0.632545
 H    -4.385051     0.092700     0.579278
 C    -3.133220    -3.063245     0.474951
 H    -2.200078    -3.597792     0.289007
 C    -5.480842    -1.684871     1.027655
 H    -6.408884    -1.161729     1.265954
 C    -4.265810    -3.770584     0.880070
 H    -4.203562    -4.853298     0.991549
 C    -5.453353    -3.082928     1.148074
 O    -6.601839    -3.668550     1.538387
 C    -6.628285    -5.058719     1.701288
 H    -5.916034    -5.395418     2.475090
 H    -7.646022    -5.319486     2.018412
 H    -6.401736    -5.587458     0.758513
 C    -1.068999    -0.014465     2.463176
 H    -0.658281    -1.027058     2.515737
 C    -2.165641     1.717563     1.218069
 H    -2.625782     2.094841     0.305876
 C    -1.021518     0.804601     3.579787
 H    -0.586122     0.461467     4.520392
 C    -2.121302     2.558400     2.332013
 H    -2.546820     3.559485     2.256498
 C    -1.539309     2.108288     3.521383
 O    -1.440300     2.840182     4.647397
 C    -1.944313     4.146122     4.649486
 H    -3.030239     4.167994     4.450331
 H    -1.759107     4.553924     5.651194
 H    -1.435273     4.784008     3.904941
 H     1.470141     0.295471     2.324074
 H     2.234351    -1.290733     2.240880
 C     3.613969     0.344865     2.020273
 C     4.755970    -0.465455     2.072790
 H     4.644736    -1.550645     2.007616
 C     3.785628     1.732760     2.092788
 H     2.914279     2.389355     2.058878
 C     6.029680     0.081912     2.182380
 H     6.921693    -0.545758     2.216724
 C     5.053907     2.298795     2.199322
 H     5.194755     3.379658     2.255949
 C     6.162889     1.463517     2.237992
 F     7.380223     1.999312     2.336275
 C     4.298729     0.063127    -1.055701
 H     4.113052     1.111960    -0.813782
 C     3.592088    -2.236039    -1.094223
 H     2.827034    -2.990406    -0.890358
 C     5.510711    -0.295649    -1.619015
 H     6.281507     0.447781    -1.830041
 C     4.813332    -2.613818    -1.652858
 H     4.993203    -3.664992    -1.879082
 C     5.782266    -1.640119    -1.918578
 O     6.988837    -1.895581    -2.456664
 C     7.323354    -3.218755    -2.770650
 H     6.639783    -3.647364    -3.524590
 H     8.339231    -3.196674    -3.184801
 H     7.316165    -3.867048    -1.876793
 C     0.833770     2.193857     0.232085
 H     0.727323     2.051457     1.308979
 C     1.467940     1.421451    -1.947651
 H     1.896874     0.657194    -2.601629
 C     0.359435     3.373880    -0.323091
 H    -0.093040     4.145865     0.301675
 C     0.990808     2.597766    -2.521148
 H     1.060004     2.730141    -3.600912
 C     0.414083     3.579979    -1.706011
 O    -0.130235     4.726235    -2.162545
 C    -0.148328     4.960310    -3.544307
 H    -0.719443     4.182961    -4.082088
 H    -0.641020     5.929398    -3.692566
 H     0.870849     5.010918    -3.965595
