 100
scf done:    -4381.229297
 C    -1.263546    -3.611342    -0.269086
 H    -2.338900    -3.443234    -0.140461
 H    -1.085889    -4.365573    -1.044280
 C    -0.501429    -3.814068     0.995436
 H    -1.126228    -3.841737     1.899694
 H     0.195011    -4.663595     0.982191
 H     0.191823    -2.899604     1.254063
Co    -0.085141    -2.054501    -0.255293
 C     1.253777     0.068471     1.938543
 O     3.041153    -1.187929     0.554242
 O     1.633487     0.517911    -0.811735
 C    -2.302428    -0.214015    -1.845091
 O    -3.159806    -1.131511     0.481711
 O    -1.439222     0.785256     0.583129
 P    -1.677907    -0.686527    -0.178732
 P     1.468457    -0.711587     0.288708
 C     0.387714    -2.449192    -1.862718
 O     0.548480    -2.702994    -2.976701
 H     0.193618     0.348874     1.953521
 H     1.382176    -0.788874     2.621969
 C     2.099758     1.234331     2.339129
 C     3.469622     1.100880     2.596404
 H     3.933423     0.116983     2.517149
 C     1.519981     2.505081     2.444902
 H     0.452622     2.629050     2.245395
 C     4.248977     2.207024     2.918168
 H     5.320423     2.116604     3.105734
 C     2.285959     3.622154     2.771407
 H     1.842859     4.616627     2.846994
 C     3.647110     3.457900     2.995157
 F     4.392188     4.521430     3.294215
 C     3.795993    -2.056137    -0.198594
 C     3.288732    -3.289149    -0.605174
 H     2.266095    -3.551293    -0.334207
 C     5.114923    -1.672573    -0.492242
 C     5.690638    -0.395451     0.036664
 H     4.985224     0.441112    -0.047433
 H     5.943149    -0.497872     1.105446
 H     6.611197    -0.130487    -0.500134
 C     4.075474    -4.143106    -1.374118
 H     3.666685    -5.100401    -1.704869
 C     5.879009    -2.551606    -1.265942
 H     6.903767    -2.265045    -1.517604
 C     5.371701    -3.768948    -1.716881
 H     5.994089    -4.428058    -2.326031
 C     2.755926     1.189722    -1.250385
 C     3.178634     2.342543    -0.593388
 H     2.638143     2.682092     0.287791
 C     3.392237     0.738701    -2.418654
 C     2.884874    -0.451706    -3.166542
 H     3.018258    -1.382951    -2.595638
 H     1.809900    -0.360858    -3.376822
 H     3.417474    -0.570297    -4.119279
 C     4.286251     3.044551    -1.062738
 H     4.617322     3.941144    -0.533934
 C     4.504643     1.461129    -2.863268
 H     5.018301     1.119219    -3.765720
 C     4.960091     2.595944    -2.195505
 H     5.833502     3.135282    -2.568845
 H    -1.469024     0.352615    -2.290483
 H    -2.323169    -1.181394    -2.372364
 C    -3.607872     0.510808    -1.990219
 C    -4.820557    -0.162796    -1.791819
 H    -4.806205    -1.219063    -1.522101
 C    -3.653433     1.861303    -2.353133
 H    -2.723386     2.410357    -2.516010
 C    -6.040933     0.492239    -1.921935
 H    -6.988859    -0.026204    -1.766628
 C    -4.865334     2.532341    -2.488999
 H    -4.902448     3.588441    -2.760695
 C    -6.046821     1.839568    -2.263303
 F    -7.211983     2.476204    -2.384221
 C    -3.237612    -1.748917     1.696697
 C    -2.383493    -1.416171     2.750228
 H    -1.652692    -0.619091     2.616914
 C    -4.225125    -2.737377     1.850963
 C    -5.154167    -3.058386     0.721546
 H    -5.763171    -2.181965     0.450188
 H    -4.598683    -3.352356    -0.183569
 H    -5.831939    -3.879669     0.989966
 C    -2.481867    -2.091631     3.965739
 H    -1.808649    -1.827130     4.784483
 C    -4.303725    -3.393155     3.081480
 H    -5.064097    -4.167882     3.212649
 C    -3.439089    -3.087874     4.132829
 H    -3.522844    -3.621040     5.082168
 C    -1.727651     2.072925     0.210100
 C    -0.781114     2.769841    -0.540398
 H     0.126806     2.246497    -0.843802
 C    -2.909384     2.681162     0.658914
 C    -3.927921     1.905171     1.431863
 H    -4.440396     1.183488     0.775539
 H    -3.464315     1.320542     2.239986
 H    -4.683966     2.572281     1.866932
 C    -1.011072     4.101273    -0.879013
 H    -0.269816     4.645145    -1.469010
 C    -3.107455     4.021176     0.312227
 H    -4.024117     4.515267     0.645333
 C    -2.179719     4.728786    -0.451032
 H    -2.368722     5.774199    -0.705347
