 106
scf done:    -4261.424734
 C     0.804117     1.349797    -3.158670
 H     0.448825     2.230090    -3.706978
 H     1.888691     1.246104    -3.295173
 C     0.006960     0.109263    -3.384816
 H    -0.881303     0.247454    -4.014682
 H     0.586835    -0.759575    -3.726078
 H    -0.456232    -0.314555    -2.397720
Co     0.045350     1.023795    -1.384206
 C     3.528882     0.327202    -1.174203
 O     2.577592     2.363868    -0.002032
 O     1.899710     0.053943     1.004686
 C    -1.146585     0.956551     1.843592
 O    -2.793507     0.265492    -0.102009
 O    -0.925770    -1.359276     0.616344
 P    -1.154907     0.226501     0.166668
 P     1.918831     0.880674    -0.451131
 C    -0.787035     2.537538    -1.460621
 O    -1.267430     3.582521    -1.538291
 H     3.696358     0.995291    -2.032329
 H     4.304083     0.559846    -0.430052
 C     3.571108    -1.113323    -1.580895
 C     4.042408    -2.093560    -0.700339
 H     4.402921    -1.805156     0.289694
 C     3.141491    -1.508572    -2.852083
 H     2.802065    -0.744478    -3.556754
 C     4.066671    -3.430723    -1.089228
 H     4.444681    -4.187359    -0.397170
 C     3.152722    -2.846226    -3.256866
 C     2.642284    -3.240266    -4.612341
 H     3.173200    -4.119013    -5.006253
 H     1.570853    -3.501382    -4.567924
 H     2.747562    -2.421058    -5.338163
 C     3.622329    -3.807044    -2.354367
 H     3.646984    -4.859415    -2.650544
 C     1.815755     3.394858     0.482715
 C     1.307109     3.342791     1.778964
 H     1.513015     2.467325     2.396783
 C     1.621000     4.517581    -0.334438
 C     2.199756     4.545682    -1.713804
 H     3.294733     4.430997    -1.685152
 H     1.807722     3.711522    -2.314678
 H     1.959098     5.487057    -2.225475
 C     0.556310     4.407902     2.272497
 H     0.153210     4.362715     3.286981
 C     0.868101     5.573088     0.184671
 H     0.691928     6.449925    -0.443812
 C     0.330475     5.523516     1.469990
 H    -0.260181     6.361748     1.846109
 C     2.892891    -0.211426     1.908272
 C     3.877094     0.721400     2.243134
 H     3.883432     1.693965     1.751647
 C     2.845113    -1.474555     2.527540
 C     1.808471    -2.476306     2.126826
 H     1.759453    -3.303947     2.847649
 H     0.815415    -2.020751     2.021154
 H     2.047587    -2.897160     1.136242
 C     4.840081     0.397067     3.198144
 H     5.609162     1.129665     3.453537
 C     3.818395    -1.762574     3.487558
 H     3.792626    -2.739604     3.978178
 C     4.812864    -0.844872     3.824821
 H     5.561161    -1.100861     4.578037
 H    -0.101360     0.869866     2.169122
 H    -1.362107     2.027176     1.706983
 C    -2.081976     0.283806     2.797680
 C    -3.426748     0.662333     2.881396
 H    -3.789181     1.498147     2.280299
 C    -1.635646    -0.791390     3.570983
 H    -0.585269    -1.087836     3.509047
 C    -4.296694    -0.034225     3.714529
 H    -5.345266     0.266778     3.778194
 C    -2.498521    -1.509936     4.404547
 C    -1.993784    -2.694753     5.175660
 H    -1.010602    -2.492098     5.626312
 H    -2.687270    -2.981586     5.978765
 H    -1.872853    -3.566936     4.511798
 C    -3.839001    -1.115954     4.466332
 H    -4.531494    -1.660984     5.113679
 C    -3.364213     0.363314    -1.346293
 C    -3.230133    -0.662599    -2.279380
 H    -2.667795    -1.559278    -2.013405
 C    -4.125312     1.509455    -1.620910
 C    -4.310961     2.568047    -0.578250
 H    -4.886341     2.176669     0.275807
 H    -3.347737     2.925581    -0.187798
 H    -4.850936     3.431700    -0.988528
 C    -3.830300    -0.541301    -3.530776
 H    -3.723445    -1.347634    -4.260060
 C    -4.714844     1.604869    -2.884647
 H    -5.303761     2.495201    -3.120876
 C    -4.567638     0.599211    -3.838772
 H    -5.038859     0.704015    -4.818577
 C    -1.661322    -2.432569     0.191192
 C    -2.926277    -2.654090     0.740394
 H    -3.307172    -1.952685     1.484105
 C    -1.113943    -3.294573    -0.770499
 C     0.248358    -3.059589    -1.347098
 H     0.610330    -2.045398    -1.139787
 H     0.987023    -3.760824    -0.927883
 H     0.246701    -3.212346    -2.436087
 C    -3.675283    -3.748506     0.322699
 H    -4.667579    -3.917630     0.746725
 C    -1.892990    -4.388795    -1.169424
 H    -1.488777    -5.071469    -1.922434
 C    -3.158825    -4.618181    -0.638131
 H    -3.744475    -5.476471    -0.975282
