  80
scf done:    -3471.180649
 C    -1.824711    -0.181105    -2.472180
 H    -1.475904    -0.369429    -3.494745
 H    -2.786280    -0.684616    -2.308025
 C    -1.794277     1.247858    -2.053917
 H    -1.356674     1.939082    -2.787118
 H    -2.759159     1.641545    -1.704305
 H    -1.147598     1.404322    -1.087364
Co    -0.480643    -0.214591    -1.059724
 C    -2.844454    -0.519249     1.593123
 C    -2.823021    -2.579223    -0.374389
 C    -0.684529    -2.390165     1.527154
 C     2.358181    -0.790944     0.768606
 C     2.190135     1.792734    -0.573952
 C     0.644106     1.334971     1.805792
 P     1.118331     0.514723     0.215200
 P    -1.673857    -1.332267     0.367147
 C     0.595473    -1.080236    -2.051537
 O     1.289563    -1.772415    -2.678315
 H    -3.534932    -1.274797     2.000312
 H    -2.221436    -0.160599     2.427252
 C    -3.599472     0.624731     0.990073
 C    -3.155512     1.943004     1.152011
 H    -2.272526     2.136593     1.764817
 C    -4.746056     0.411096     0.213329
 H    -5.127780    -0.604649     0.084119
 C    -3.817048     3.013758     0.557002
 H    -3.474674     4.042251     0.684722
 C    -5.419231     1.467777    -0.394541
 H    -6.312198     1.304734    -1.000513
 C    -4.942196     2.760715    -0.217465
 F    -5.582621     3.778249    -0.792189
 H    -3.377009    -3.095735     0.428108
 H    -3.569295    -2.009879    -0.952198
 C    -2.124365    -3.576658    -1.286889
 H    -1.396682    -4.166447    -0.702442
 H    -1.530387    -3.019590    -2.028836
 C    -3.093651    -4.515729    -1.987332
 H    -3.684659    -5.101539    -1.264536
 H    -3.803532    -3.954622    -2.616187
 H    -2.563688    -5.226871    -2.639037
 H     0.031090    -2.933755     0.887836
 H    -0.071051    -1.692768     2.122887
 C    -1.408297    -3.360262     2.450147
 H    -1.986025    -4.082661     1.850276
 H    -2.146147    -2.817912     3.065073
 C    -0.450905    -4.115981     3.360278
 H     0.280372    -4.695480     2.774489
 H     0.117782    -3.425319     4.003725
 H    -0.985497    -4.819234     4.016861
 H     2.295336    -0.862868     1.864889
 H     1.977527    -1.737132     0.362269
 C     3.778865    -0.583977     0.336115
 C     4.191474    -0.965536    -0.948443
 H     3.475698    -1.438002    -1.626346
 C     4.718648     0.018428     1.180631
 H     4.425012     0.317087     2.190243
 C     5.496233    -0.745374    -1.380203
 H     5.823087    -1.040580    -2.378921
 C     6.028598     0.244544     0.764758
 H     6.766467     0.709656     1.420928
 C     6.400430    -0.138620    -0.517215
 F     7.651268     0.075793    -0.924920
 H     3.042666     2.028448     0.083923
 H     2.615263     1.311642    -1.469258
 C     1.438431     3.055557    -0.969091
 H     1.000235     3.530240    -0.073368
 H     0.588397     2.776073    -1.611424
 C     2.323857     4.059329    -1.690922
 H     3.171078     4.373162    -1.060375
 H     2.743057     3.625185    -2.612278
 H     1.762309     4.963228    -1.972057
 H    -0.094286     2.102603     1.518517
 H     0.073043     0.582689     2.376850
 C     1.730514     1.949386     2.675124
 H     2.289564     2.702842     2.096094
 H     2.466871     1.176430     2.951734
 C     1.172835     2.589629     3.937836
 H     0.459616     3.393437     3.694572
 H     0.637933     1.851953     4.557375
 H     1.970616     3.028599     4.555913
