 106
scf done:    -4261.410943
 C     2.163779    -1.650469    -3.242691
 H     2.281119    -1.308636    -4.276731
 H     3.134169    -1.981094    -2.849876
 C     1.018970    -2.575115    -3.002287
 H     0.381688    -2.765290    -3.875709
 H     1.296259    -3.529535    -2.528711
 H     0.270287    -2.152672    -2.202742
Co     1.006758    -0.568420    -2.104543
 C     2.946976    -2.016306     0.414085
 O     3.941865    -0.116490    -1.229820
 O     2.382717     0.486643     0.733553
 C    -1.059749     1.754592    -0.653381
 O    -2.104706    -0.229091    -2.191950
 O    -1.245040    -0.929829     0.111139
 P    -0.799859     0.007088    -1.175795
 P     2.456510    -0.550654    -0.589653
 C     1.004119     0.745487    -3.220348
 O     1.105614     1.683429    -3.886104
 H     3.154230    -2.813315    -0.318904
 H     3.889295    -1.784795     0.932130
 C     1.879036    -2.427434     1.381678
 C     1.968916    -2.072207     2.733768
 H     2.836942    -1.508117     3.083638
 C     0.756122    -3.133148     0.946875
 H     0.670892    -3.394849    -0.111134
 C     0.960929    -2.437518     3.619546
 H     1.038176    -2.163493     4.674656
 C    -0.274821    -3.494726     1.820978
 C    -1.489326    -4.204221     1.300658
 H    -2.075858    -3.533856     0.652098
 H    -1.214687    -5.084709     0.698826
 H    -2.144398    -4.538003     2.117276
 C    -0.154535    -3.141361     3.167135
 H    -0.951693    -3.407556     3.866123
 C     5.132729    -0.136169    -0.556103
 C     6.052420    -1.144727    -0.845671
 H     5.787563    -1.903815    -1.584810
 C     5.455344     0.847745     0.379362
 H     4.742425     1.644327     0.594686
 C     7.282854    -1.170748    -0.196394
 H     7.993613    -1.968202    -0.430838
 C     6.689912     0.805488     1.022202
 H     6.931305     1.579942     1.755743
 C     7.626167    -0.198834     0.751041
 C     8.966742    -0.213475     1.426995
 H     9.359450    -1.236310     1.522433
 H     8.915977     0.227682     2.433119
 H     9.707141     0.368331     0.852448
 C     2.067328     1.806891     0.632302
 C     1.533762     2.426557     1.765501
 H     1.433667     1.846257     2.684461
 C     2.260778     2.551703    -0.533949
 H     2.726319     2.094503    -1.407550
 C     1.130343     3.755852     1.705902
 H     0.697953     4.220903     2.596193
 C     1.846112     3.881612    -0.574909
 H     1.984344     4.443712    -1.502562
 C     1.254772     4.504960     0.528109
 C     0.747097     5.914999     0.448706
 H     0.864296     6.442500     1.406834
 H    -0.326472     5.930904     0.195767
 H     1.274457     6.490605    -0.325436
 H    -0.585722     1.857615     0.333999
 H    -0.423400     2.318979    -1.350564
 C    -2.455347     2.296414    -0.660820
 C    -2.998856     2.806845    -1.847317
 H    -2.398246     2.802774    -2.760171
 C    -3.234477     2.312054     0.498014
 H    -2.810457     1.936391     1.432064
 C    -4.298132     3.303294    -1.864447
 H    -4.715465     3.701758    -2.792395
 C    -4.549063     2.792376     0.493849
 C    -5.364826     2.752934     1.753164
 H    -4.828655     3.225995     2.590655
 H    -6.328854     3.266124     1.630028
 H    -5.566514     1.711491     2.052122
 C    -5.073228     3.287533    -0.703984
 H    -6.096554     3.672260    -0.727031
 C    -3.198045    -1.001661    -1.913522
 C    -4.440285    -0.401288    -1.717077
 H    -4.521697     0.684609    -1.765490
 C    -3.079809    -2.390665    -1.838788
 H    -2.103295    -2.852671    -1.993214
 C    -5.550656    -1.193561    -1.435114
 H    -6.517679    -0.708821    -1.274096
 C    -4.196244    -3.167585    -1.545314
 H    -4.085943    -4.253304    -1.473946
 C    -5.453481    -2.586403    -1.335447
 C    -6.658931    -3.433320    -1.046428
 H    -7.425277    -2.868827    -0.495834
 H    -6.395768    -4.320917    -0.452360
 H    -7.124643    -3.792402    -1.979596
 C    -1.840710    -0.587829     1.293125
 C    -3.177194    -0.910873     1.524735
 H    -3.757876    -1.404603     0.745186
 C    -1.080921     0.015273     2.290016
 H    -0.019675     0.187328     2.109197
 C    -3.753580    -0.579412     2.746298
 H    -4.803205    -0.832450     2.921569
 C    -1.678233     0.355769     3.500915
 H    -1.075598     0.837131     4.276146
 C    -3.026412     0.076896     3.749303
 C    -3.684200     0.474754     5.038671
 H    -4.350715     1.341174     4.891796
 H    -2.943033     0.753585     5.800921
 H    -4.300898    -0.340948     5.445778
