  96
scf done:    -4080.433676
 C     1.152069     3.326335     0.232796
 H     0.833944     4.113163     0.927460
 H     2.246014     3.222543     0.280667
 C     0.587340     3.446920    -1.147206
 H    -0.114569     4.280059    -1.286588
 H     1.336826     3.461644    -1.953707
 H    -0.064726     2.520728    -1.445438
Co     0.038406     1.736389     0.121829
 C     3.180672     1.016381    -1.110732
 C     2.612183     0.052629     1.589646
 C     1.513875    -1.356826    -0.655688
 C    -1.731741    -1.092395     0.628069
 C    -3.272437     1.213020    -0.328761
 C    -1.614556    -0.186871    -2.216570
 P    -1.585506     0.433907    -0.448496
 P     1.760278     0.400905    -0.036296
 C    -0.763834     2.174829     1.553168
 O    -1.304530     2.486082     2.535297
 H     3.107949     0.463590    -2.058618
 H     2.933746     2.063613    -1.334342
 C     4.574482     0.939017    -0.562493
 C     5.043606     1.919923     0.322684
 H     4.393011     2.756670     0.592684
 C     5.443506    -0.103165    -0.906711
 H     5.115936    -0.869147    -1.610668
 C     6.323510     1.858626     0.865577
 H     6.690520     2.621139     1.554882
 C     6.727485    -0.181108    -0.373209
 H     7.405030    -0.993864    -0.641040
 C     7.151015     0.799340     0.513839
 F     8.377903     0.728966     1.031502
 H     3.023911     1.017256     1.918818
 H     3.464909    -0.620152     1.412646
 C     1.660883    -0.483902     2.614968
 C     1.422282    -1.856978     2.765604
 H     1.996994    -2.576957     2.179543
 C     0.927946     0.400090     3.416238
 H     1.109635     1.471936     3.327574
 C     0.462310    -2.328701     3.660146
 H     0.292022    -3.403799     3.754074
 C    -0.031292    -0.065224     4.311486
 H    -0.596707     0.652469     4.910160
 C    -0.276942    -1.432773     4.429919
 H    -1.037497    -1.799717     5.122855
 H     0.761709    -1.271362    -1.449579
 H     1.021963    -1.874922     0.181458
 C     2.679486    -2.136974    -1.174647
 C     3.541721    -2.853290    -0.333244
 H     3.366532    -2.861033     0.743475
 C     2.936039    -2.168986    -2.553936
 H     2.264839    -1.636542    -3.234452
 C     4.626106    -3.560439    -0.846925
 H     5.283123    -4.107942    -0.167126
 C     4.021115    -2.872629    -3.072523
 H     4.197224    -2.879819    -4.150824
 C     4.875166    -3.569885    -2.218702
 H     5.726006    -4.123904    -2.621483
 H    -1.413847    -1.951847     0.021284
 H    -0.975107    -0.940180     1.410831
 C    -3.069344    -1.354943     1.248063
 C    -3.421272    -0.726106     2.450266
 H    -2.701058    -0.064249     2.938841
 C    -4.002493    -2.203815     0.641764
 H    -3.747200    -2.710604    -0.291072
 C    -4.670931    -0.927352     3.029268
 H    -4.953305    -0.440632     3.964546
 C    -5.256212    -2.416573     1.209832
 H    -5.988122    -3.078888     0.743944
 C    -5.576295    -1.771393     2.397449
 F    -6.775752    -1.969775     2.945557
 H    -3.460093     1.341288     0.746812
 H    -4.027879     0.506547    -0.703979
 C    -3.324021     2.536735    -1.031497
 C    -3.692769     2.640742    -2.378827
 H    -4.015245     1.750091    -2.923353
 C    -2.959488     3.710266    -0.355281
 H    -2.697711     3.658507     0.702609
 C    -3.673846     3.868386    -3.040069
 H    -3.968115     3.921765    -4.091027
 C    -2.944100     4.938217    -1.011679
 H    -2.662317     5.839256    -0.461223
 C    -3.291187     5.022165    -2.360073
 H    -3.276829     5.985794    -2.874677
 H    -0.566394    -0.353455    -2.500296
 H    -1.949355     0.685511    -2.799268
 C    -2.441271    -1.400745    -2.502211
 C    -3.806137    -1.309788    -2.806872
 H    -4.278822    -0.328859    -2.884103
 C    -1.866507    -2.679139    -2.438707
 H    -0.797865    -2.779737    -2.228952
 C    -4.574302    -2.452480    -3.018701
 H    -5.636677    -2.352850    -3.253159
 C    -2.631451    -3.824530    -2.648180
 H    -2.159047    -4.808038    -2.591871
 C    -3.992209    -3.716298    -2.933119
 H    -4.593980    -4.613001    -3.097043
