 108
scf done:    -3937.771262
 C    -1.030072    -1.694739    -2.741783
 H    -0.652751    -2.627850    -3.176981
 H    -2.127673    -1.730790    -2.686734
 C    -0.484543    -0.453962    -3.361896
 H     0.282347    -0.613198    -4.131622
 H    -1.243629     0.243016    -3.751029
 H     0.052770     0.223228    -2.571031
Co     0.005630    -0.942128    -1.266520
 C    -2.717912     1.020658    -1.108123
 C    -3.138875    -1.705472    -0.161847
 C    -1.936652     0.268373     1.583944
 C     2.066016    -0.293329     1.335930
 C     3.285197    -0.246394    -1.340014
 C     1.534002     2.045388    -0.452972
 P     1.701620     0.183347    -0.448876
 P    -1.827758    -0.352003    -0.175243
 C     0.792190    -2.407715    -0.899660
 O     1.303529    -3.395106    -0.556770
 H    -2.087127     1.913841    -0.974856
 H    -2.615489     0.731769    -2.164282
 C    -4.151780     1.307879    -0.800357
 C    -5.170521     0.712932    -1.557783
 H    -4.904385     0.083568    -2.411207
 C    -4.528808     2.132826     0.268798
 H    -3.760578     2.634267     0.861636
 C    -6.513939     0.893282    -1.242193
 H    -7.308032     0.424967    -1.826497
 C    -5.867414     2.326503     0.599247
 H    -6.164526     2.964828     1.433316
 C    -6.846581     1.692906    -0.155939
 F    -8.129791     1.869355     0.158080
 H    -3.562836    -1.623223    -1.180266
 C    -4.307892    -1.558065     0.818126
 H    -4.760249    -0.559417     0.762354
 H    -3.941944    -1.680222     1.851741
 C    -5.372473    -2.619613     0.553634
 H    -6.202666    -2.502343     1.269340
 H    -5.803990    -2.451242    -0.449964
 C    -4.792887    -4.026756     0.630251
 H    -5.565584    -4.777127     0.395543
 H    -4.471710    -4.226640     1.668931
 C    -3.595221    -4.180400    -0.299749
 H    -3.937716    -4.106061    -1.348318
 H    -3.147599    -5.181835    -0.192243
 C    -2.538537    -3.109252    -0.052417
 H    -2.100898    -3.249344     0.951893
 H    -1.706583    -3.212217    -0.760448
 H    -3.012039     0.425522     1.779091
 C    -1.228228     1.598959     1.826860
 H    -1.579523     2.372741     1.125953
 H    -0.153405     1.474771     1.628187
 C    -1.407333     2.076370     3.264337
 H    -0.877646     3.031894     3.413362
 H    -2.477740     2.280587     3.449023
 C    -0.914249     1.030348     4.257182
 H    -1.083149     1.369764     5.291867
 H     0.179464     0.913170     4.145486
 C    -1.587588    -0.315804     4.018726
 H    -2.664576    -0.228707     4.250812
 H    -1.182618    -1.075761     4.706398
 C    -1.427093    -0.781416     2.574936
 H    -0.365605    -0.987268     2.365585
 H    -1.950935    -1.736809     2.430657
 H     1.599381     0.470678     1.972690
 H     1.472586    -1.207954     1.466666
 C     3.474208    -0.560726     1.772085
 C     4.067881    -1.799315     1.488937
 H     3.481823    -2.570318     0.980171
 C     4.230761     0.388144     2.470563
 H     3.786220     1.352853     2.724974
 C     5.385235    -2.068814     1.848660
 H     5.852735    -3.029967     1.627314
 C     5.548002     0.133621     2.843323
 H     6.142437     0.870501     3.386369
 C     6.114202    -1.091871     2.515541
 F     7.376688    -1.340554     2.861545
 H     3.497320    -1.244126    -0.913203
 C     4.516286     0.626887    -1.093288
 H     4.685863     0.778656    -0.019280
 H     4.353408     1.624946    -1.534869
 C     5.756440     0.002746    -1.728269
 H     6.632541     0.648391    -1.553719
 H     5.970598    -0.954374    -1.219798
 C     5.560215    -0.243720    -3.219135
 H     6.450394    -0.729612    -3.650731
 H     5.456571     0.728470    -3.735357
 C     4.314553    -1.082761    -3.479767
 H     4.464020    -2.096069    -3.065252
 H     4.154557    -1.211865    -4.562668
 C     3.073651    -0.470119    -2.839533
 H     2.840852     0.488555    -3.335161
 H     2.199544    -1.121913    -2.982194
 H     0.485169     2.161044    -0.131902
 C     1.601722     2.622623    -1.869779
 H     0.950877     2.047858    -2.547335
 H     2.626415     2.527155    -2.265080
 C     1.197577     4.093484    -1.881826
 H     1.276415     4.497209    -2.904127
 H     0.133300     4.177749    -1.595184
 C     2.046484     4.911352    -0.916158
 H     1.721299     5.964181    -0.912601
 H     3.094580     4.911039    -1.266718
 C     1.990311     4.332339     0.492251
 H     0.960885     4.429274     0.883523
 H     2.636462     4.909214     1.173673
 C     2.391062     2.858923     0.516115
 H     3.457419     2.760360     0.257487
 H     2.280334     2.471304     1.540195
