  88
scf done:    -3577.441105
 C    -0.271675    -1.449199    -3.252076
 H     0.016217    -2.331654    -3.836254
 H    -1.349012    -1.268000    -3.379973
 C     0.592275    -0.248185    -3.466875
 H     1.402905    -0.386554    -4.196018
 H     0.040979     0.672755    -3.709402
 H     1.169042     0.059848    -2.499965
Co     0.549374    -1.241104    -1.500537
 C    -2.412799     0.546246    -1.445771
 C    -2.426836    -2.228202    -0.646738
 C    -1.485679    -0.171882     1.202292
 C     2.098372    -1.862741     1.424978
 C     3.744084    -0.886653    -0.763309
 C     2.158713     0.890882     0.894770
 P     2.045297    -0.727756    -0.013320
 P    -1.347663    -0.698015    -0.605135
 C     1.004449    -2.886573    -1.465461
 O     1.209142    -4.026534    -1.384084
 H    -1.942439     1.534807    -1.354062
 H    -2.476993     0.289233    -2.513173
 H    -3.422287     0.611203    -1.018528
 H    -2.507334    -2.468544    -1.717906
 H    -1.804443    -3.018046    -0.200316
 C    -3.765709    -2.157022     0.011876
 C    -3.948153    -2.642386     1.313891
 H    -3.116447    -3.132784     1.827231
 C    -4.863857    -1.575389    -0.635612
 H    -4.747230    -1.225347    -1.665030
 C    -5.181327    -2.520146     1.950086
 H    -5.310758    -2.907620     2.963551
 C    -6.104909    -1.430754    -0.009453
 C    -7.242765    -0.747469    -0.710587
 H    -7.253363     0.330122    -0.474828
 H    -7.159958    -0.842461    -1.802742
 H    -8.214692    -1.158816    -0.401594
 C    -6.250404    -1.909883     1.298805
 H    -7.215548    -1.815979     1.804198
 H    -1.910952    -1.024653     1.751382
 H    -0.456992    -0.040300     1.561625
 C    -2.285802     1.068208     1.463288
 C    -1.680174     2.329026     1.433951
 H    -0.603913     2.416356     1.265921
 C    -3.667639     0.995844     1.681917
 H    -4.151090     0.016763     1.710539
 C    -2.445272     3.482080     1.602513
 H    -1.959109     4.460658     1.575301
 C    -4.448545     2.141475     1.851651
 C    -5.929736     2.032699     2.075752
 H    -6.255351     0.983065     2.072902
 H    -6.222786     2.478154     3.039881
 H    -6.491320     2.566318     1.291987
 C    -3.819279     3.392412     1.804615
 H    -4.412726     4.302219     1.932752
 H     2.217325    -2.893332     1.061786
 H     2.910575    -1.617073     2.124432
 H     1.133235    -1.801421     1.948659
 H     3.752577    -1.898855    -1.196378
 H     3.748811    -0.183070    -1.610612
 C     4.917038    -0.657392     0.136566
 C     5.547480     0.591132     0.190096
 H     5.201252     1.395632    -0.463137
 C     5.395738    -1.680707     0.964655
 H     4.927045    -2.667961     0.912652
 C     6.608557     0.807751     1.066109
 H     7.092478     1.787217     1.100685
 C     6.461523    -1.482718     1.847595
 C     6.974552    -2.609181     2.697584
 H     6.195823    -3.362636     2.883894
 H     7.815914    -3.122786     2.202965
 H     7.341258    -2.246452     3.669019
 C     7.058275    -0.217044     1.894613
 H     7.889989    -0.037982     2.581581
 H     1.313745     0.888376     1.604496
 H     3.074577     0.865327     1.505865
 C     2.118880     2.140147     0.062325
 C     3.091858     3.135059     0.221254
 H     3.905736     2.983078     0.934482
 C     1.078362     2.364770    -0.844483
 H     0.333041     1.577880    -0.982264
 C     3.016418     4.315129    -0.513525
 H     3.781093     5.085084    -0.383937
 C     0.977739     3.550983    -1.579233
 C    -0.188415     3.773919    -2.497790
 H    -1.113206     3.940487    -1.920634
 H    -0.035221     4.649742    -3.143601
 H    -0.365056     2.899749    -3.142390
 C     1.966820     4.524056    -1.406487
 H     1.910904     5.457138    -1.973728
