  82
scf done:    -3895.618471
 C     1.318298    -3.395541     1.457082
 H     1.514266    -4.349950     0.953382
 H     2.185711    -3.118968     2.072665
 C     0.003442    -3.328503     2.162078
 H    -0.663658    -4.181450     1.976705
 H     0.071461    -3.151107     3.246320
 H    -0.607726    -2.384382     1.831554
Co     0.400291    -2.006046     0.445092
 C     1.318675     0.634453     2.590788
 C     3.493458    -0.683904     1.420216
 C     1.797698     0.976591    -0.239832
 C    -1.191984    -0.333771    -2.078765
 C    -2.740620    -2.202876    -0.404789
 C    -1.974948     0.502796     0.643634
 P    -1.335252    -0.955677    -0.342879
 P     1.693259    -0.357328     1.062480
 C     0.618280    -2.850718    -1.021037
 O     0.850825    -3.380154    -2.027858
 H     0.395725     1.204169     2.395424
 C     1.128311    -0.234143     3.824058
 H     2.029062    -0.823156     4.056615
 H     0.298849    -0.941266     3.680769
 H     2.113491     1.381752     2.747357
 H     0.901227     0.379024     4.709419
 H     3.917969     0.227833     1.869131
 H     3.497519    -1.454824     2.209917
 C     4.354352    -1.122964     0.268087
 C     3.938736    -2.109942    -0.633906
 H     2.955433    -2.560273    -0.500572
 C     5.622871    -0.556459     0.086480
 H     5.973565     0.210258     0.782823
 C     4.747588    -2.507563    -1.694631
 H     4.414840    -3.268902    -2.402522
 C     6.448946    -0.947225    -0.965017
 H     7.438342    -0.509401    -1.109794
 C     5.996153    -1.919261    -1.848577
 F     6.778114    -2.292881    -2.861830
 H     2.221590     0.469693    -1.120302
 H     0.752102     1.206583    -0.490476
 C     2.544023     2.233137     0.083650
 C     1.914361     3.295749     0.747168
 H     0.856444     3.217649     1.011862
 C     3.892354     2.384061    -0.264387
 H     4.398323     1.580217    -0.803199
 C     2.603621     4.460367     1.073525
 H     2.115293     5.290382     1.587223
 C     4.598873     3.540525     0.055787
 H     5.648745     3.662278    -0.217384
 C     3.945251     4.565400     0.727939
 F     4.613711     5.675523     1.037872
 H    -0.525870    -1.055890    -2.576387
 C    -2.448078    -0.118289    -2.907301
 H    -3.173650     0.543052    -2.414687
 H    -2.947452    -1.072338    -3.130511
 H    -0.609638     0.598619    -2.010212
 H    -2.184611     0.336190    -3.874648
 H    -2.698132    -2.634637    -1.416243
 H    -2.400704    -2.999609     0.271300
 C    -4.134347    -1.792855    -0.041443
 C    -4.516634    -1.738985     1.306949
 H    -3.793959    -2.012602     2.081111
 C    -5.098189    -1.477018    -1.006851
 H    -4.837901    -1.525012    -2.065336
 C    -5.801450    -1.358894     1.686773
 H    -6.101337    -1.317751     2.735360
 C    -6.389911    -1.101749    -0.648360
 H    -7.142693    -0.857519    -1.399943
 C    -6.725273    -1.039371     0.698527
 F    -7.957597    -0.678131     1.049510
 H    -2.548639     0.072843     1.478579
 H    -1.063519     0.923392     1.089737
 C    -2.747226     1.587757    -0.043472
 C    -2.075707     2.606109    -0.734434
 H    -0.982543     2.631079    -0.739734
 C    -4.146759     1.620142    -0.023503
 H    -4.695015     0.857942     0.531129
 C    -2.768754     3.599827    -1.419629
 H    -2.248112     4.391610    -1.961003
 C    -4.857194     2.606523    -0.701399
 H    -5.948360     2.630430    -0.689721
 C    -4.158008     3.580812    -1.402821
 F    -4.831146     4.524186    -2.058871
