  86
scf done:    -3799.499647
 C    -0.984685    -0.759431    -2.541396
 H    -1.049432    -1.728413    -3.049729
 H    -1.943831    -0.229049    -2.624612
 C     0.212909     0.060799    -2.887628
 H     0.964758    -0.454093    -3.501317
 H    -0.018733     1.041139    -3.334719
 H     0.806573     0.391874    -1.937729
Co    -0.053308    -0.684232    -0.837943
 C    -1.674968     0.410687     2.031212
 C    -2.522161     1.721029    -0.425455
 C    -3.129510    -1.086401    -0.033288
 C     1.637350    -1.445896     1.987669
 C     3.143362    -1.067316    -0.472965
 C     2.210539     1.244437     1.015581
 P     1.688708    -0.428953     0.445241
 P    -1.779303     0.138654     0.195971
 C     0.005562    -2.390016    -0.719699
 O    -0.058093    -3.541990    -0.582721
 H    -1.033508     1.298050     2.152081
 C    -2.928060     0.523642     2.879960
 H    -3.625942    -0.300815     2.673558
 H    -3.464117     1.463646     2.701137
 H    -1.084149    -0.451600     2.365691
 H    -2.659475     0.481516     3.948095
 C    -1.689205     2.501822    -1.230914
 H    -0.694576     2.107617    -1.452252
 C    -3.820280     2.210915    -0.154314
 O    -4.613793     1.444208     0.613082
 C    -5.954849     1.789492     0.801817
 H    -6.063499     2.740762     1.352343
 H    -6.401504     0.981555     1.394850
 H    -6.494300     1.868622    -0.158185
 C    -2.089058     3.733583    -1.748470
 H    -1.406963     4.317104    -2.370079
 C    -4.237271     3.437980    -0.684509
 H    -5.239881     3.813873    -0.479038
 C    -3.370241     4.195136    -1.471507
 H    -3.711877     5.153303    -1.871212
 C    -4.100500    -0.930971    -1.024498
 H    -4.140121     0.005876    -1.584427
 C    -3.077382    -2.315577     0.654461
 O    -2.112580    -2.438550     1.593378
 C    -1.842273    -3.698024     2.141244
 H    -2.687015    -4.075435     2.744136
 H    -0.971552    -3.570289     2.797826
 H    -1.589596    -4.427345     1.354310
 C    -5.009124    -1.943695    -1.327053
 H    -5.754030    -1.792554    -2.111332
 C    -3.986384    -3.335326     0.358799
 H    -3.940329    -4.285108     0.891740
 C    -4.950530    -3.145542    -0.629685
 H    -5.652967    -3.951568    -0.855309
 H     1.415464    -2.468168     1.640382
 C     2.795280    -1.421103     2.968497
 H     2.948428    -0.413175     3.379493
 H     3.739296    -1.732614     2.501460
 H     0.712227    -1.107865     2.478358
 H     2.587316    -2.098622     3.812041
 C     3.631584    -2.358728    -0.281389
 H     3.186175    -2.995095     0.485299
 C     3.712111    -0.284429    -1.497886
 O     3.176583     0.944398    -1.661404
 C     3.677448     1.799954    -2.645901
 H     4.744923     2.030262    -2.482543
 H     3.099020     2.729688    -2.572209
 H     3.553487     1.376994    -3.658471
 C     4.674238    -2.866085    -1.058524
 H     5.036672    -3.881790    -0.887561
 C     4.758978    -0.781423    -2.276095
 H     5.200619    -0.171637    -3.064831
 C     5.238856    -2.072707    -2.050080
 H     6.055751    -2.456112    -2.666087
 C     1.263231     2.263796     0.946813
 H     0.275560     2.010688     0.558501
 C     3.515334     1.575441     1.439822
 O     4.422987     0.582384     1.441504
 C     5.758321     0.852751     1.751263
 H     6.191176     1.605804     1.069702
 H     6.302050    -0.092372     1.627060
 H     5.878223     1.202781     2.791908
 C     1.555339     3.574981     1.322041
 H     0.785126     4.346285     1.258311
 C     3.820502     2.889022     1.812750
 H     4.826354     3.148071     2.144343
 C     2.839010     3.879456     1.759124
 H     3.094757     4.899833     2.055813
