 100
scf done:    -3583.213370
 C     1.026642    -0.681801    -3.491292
 H     0.345250    -0.535013    -4.337516
 H     1.882206     0.001610    -3.584447
 C     1.384434    -2.107252    -3.212308
 H     0.897476    -2.834981    -3.875466
 H     2.463857    -2.312992    -3.171617
 H     1.028512    -2.459696    -2.153493
Co     0.225819    -0.962260    -1.730232
 C     0.779898     2.301229    -1.588948
 O     1.303878     0.886568     0.663719
 O     2.931205     0.903796    -1.339276
 C    -1.440168    -0.851677     1.256811
 O    -1.421524    -3.129981    -0.284801
 O     0.560775    -2.462926     1.202600
 P    -0.468059    -1.837113     0.074692
 P     1.319754     0.656939    -0.988436
 C    -1.360849    -0.723144    -2.368401
 O    -2.394595    -0.460108    -2.813012
 H     1.464622     3.061642    -1.176601
 H     0.937923     2.296041    -2.679025
 C    -0.670773     2.606431    -1.244724
 H    -1.330921     1.942878    -1.825176
 H    -0.855684     2.357537    -0.185625
 C    -1.069868     4.054381    -1.484853
 H    -0.910641     4.311141    -2.547731
 H    -0.398515     4.722809    -0.913693
 C    -2.513740     4.343935    -1.098841
 H    -3.180061     3.669680    -1.665220
 H    -2.659326     4.079323    -0.035835
 C    -2.927968     5.788175    -1.326625
 H    -3.974649     5.962095    -1.034320
 H    -2.827618     6.069837    -2.387168
 H    -2.299966     6.480617    -0.742843
 C     2.022515     1.920976     1.318361
 H     2.537937     1.446852     2.171859
 H     2.804743     2.317039     0.650900
 C     1.130842     3.043129     1.815819
 H     1.776543     3.774382     2.334093
 H     0.698554     3.581265     0.956180
 C     0.014550     2.588429     2.742580
 H     0.452692     2.121479     3.642405
 H    -0.554301     1.790423     2.240666
 C    -0.930824     3.709141     3.140884
 H    -0.400144     4.522128     3.662109
 H    -1.416912     4.149650     2.254775
 H    -1.727538     3.349103     3.809659
 C     3.814092    -0.186384    -1.522929
 H     3.502443    -1.045608    -0.903582
 H     3.771038    -0.512013    -2.576672
 C     5.229841     0.227997    -1.182719
 H     5.899883    -0.600081    -1.475170
 H     5.504426     1.085758    -1.821274
 C     5.459535     0.581572     0.279345
 H     5.168863    -0.274993     0.911397
 H     4.781385     1.403049     0.558209
 C     6.895775     0.977868     0.578522
 H     7.596501     0.161963     0.337634
 H     7.199761     1.855652    -0.014286
 H     7.033753     1.230571     1.640795
 H    -1.728109    -1.510914     2.092660
 H    -0.708181    -0.132722     1.655518
 C    -2.636712    -0.136752     0.650891
 H    -2.280565     0.553188    -0.128412
 H    -3.288559    -0.856635     0.128732
 C    -3.451537     0.642389     1.671908
 H    -2.791482     1.356175     2.196961
 H    -3.827220    -0.044781     2.452656
 C    -4.618079     1.399248     1.053517
 H    -4.235349     2.046619     0.245390
 H    -5.295691     0.679560     0.560801
 C    -5.393281     2.237265     2.056592
 H    -6.231163     2.770000     1.581822
 H    -4.743904     2.992621     2.528866
 H    -5.810314     1.613298     2.863672
 C    -1.996393    -3.989077     0.686989
 H    -1.901903    -5.011066     0.283326
 H    -1.413003    -3.953829     1.623159
 C    -3.458676    -3.668194     0.939300
 H    -3.859590    -4.433972     1.627076
 H    -3.540526    -2.709294     1.478543
 C    -4.299962    -3.607107    -0.327953
 H    -4.289657    -4.596018    -0.819507
 H    -3.817957    -2.916556    -1.039244
 C    -5.731681    -3.168973    -0.068841
 H    -6.244610    -3.849027     0.630703
 H    -5.762749    -2.159299     0.373367
 H    -6.320543    -3.139710    -0.997885
 C     1.859737    -2.911022     0.871144
 H     1.924923    -3.985296     1.117840
 H     2.029367    -2.803984    -0.215171
 C     2.890860    -2.110554     1.636975
 H     3.896546    -2.447553     1.328046
 H     2.791050    -1.058076     1.324914
 C     2.748256    -2.200780     3.148627
 H     2.875288    -3.250550     3.468351
 H     1.715652    -1.923646     3.416145
 C     3.734568    -1.311707     3.888006
 H     4.776968    -1.576115     3.645702
 H     3.595577    -0.253063     3.614211
 H     3.616957    -1.390113     4.979429
