  92
scf done:    -3878.074298
 C    -0.325436    -2.707059    -2.029404
 H    -0.242832    -3.788897    -1.862132
 H    -1.224908    -2.499637    -2.626978
 C     0.922501    -2.063997    -2.539939
 H     1.794485    -2.728954    -2.605765
 H     0.801839    -1.519561    -3.489144
 H     1.286901    -1.207775    -1.837179
Co     0.142619    -1.530278    -0.546553
 C    -1.849648     0.400637    -2.581153
 C    -3.194232    -1.109654    -0.504484
 C    -1.857502     1.190673     0.288740
 C     1.341366     0.170926     2.333293
 C     3.262871    -0.979445     0.483331
 C     1.842683     1.370343    -0.261260
 P     1.571774    -0.259933     0.531645
 P    -1.597912    -0.242076    -0.834967
 C    -0.002587    -2.821271     0.562658
 O    -0.242052    -3.709091     1.271921
 H    -1.794947    -0.554891    -3.133675
 C    -3.188476     1.037450    -2.929108
 H    -3.209004     1.298294    -4.000412
 H    -4.025694     0.352570    -2.737697
 H    -3.379263     1.962315    -2.364613
 C    -0.653779     1.236629    -3.029471
 H     0.293030     0.747768    -2.766408
 H    -0.675306     1.382048    -4.121507
 H    -0.628962     2.234062    -2.566762
 C    -4.381821    -0.401220    -0.246023
 H    -4.368039     0.690805    -0.221893
 C    -3.251727    -2.503370    -0.477043
 H    -2.336014    -3.073365    -0.634696
 C    -5.574284    -1.060201     0.003252
 H    -6.495666    -0.511794     0.208726
 C    -4.445051    -3.183089    -0.229925
 H    -4.438839    -4.273152    -0.212134
 C    -5.618495    -2.462370     0.008703
 O    -6.819087    -3.020066     0.262293
 C    -6.918241    -4.415709     0.296629
 H    -6.281864    -4.854015     1.085643
 H    -7.967497    -4.652092     0.515113
 H    -6.643988    -4.871500    -0.671309
 C    -1.955480     0.886499     1.659703
 H    -1.897841    -0.159184     1.976334
 C    -1.946805     2.532782    -0.078291
 H    -1.872759     2.823604    -1.125077
 C    -2.123748     1.875703     2.613319
 H    -2.200427     1.635307     3.675502
 C    -2.116809     3.546228     0.870224
 H    -2.180216     4.581198     0.532756
 C    -2.200927     3.223442     2.226649
 O    -2.359920     4.121385     3.219375
 C    -2.440948     5.478662     2.891438
 H    -3.305738     5.693979     2.238975
 H    -2.564279     6.025256     3.834972
 H    -1.523178     5.835985     2.390285
 H     0.431654     0.793028     2.326798
 C     1.049177    -1.085116     3.143645
 H     0.932268    -0.823490     4.207400
 H     0.132443    -1.590032     2.814126
 H     1.874496    -1.811584     3.068976
 C     2.484722     0.969109     2.944687
 H     2.741643     1.861279     2.355372
 H     2.201131     1.305648     3.955089
 H     3.390522     0.352105     3.043531
 C     4.430047    -0.203953     0.605206
 H     4.355447     0.881508     0.697054
 C     3.408032    -2.360043     0.332815
 H     2.509117    -2.969264     0.209742
 C     5.683981    -0.791591     0.590901
 H     6.593276    -0.194087     0.680226
 C     4.663722    -2.967899     0.325437
 H     4.729503    -4.049912     0.209274
 C     5.813325    -2.182819     0.456462
 O     7.070062    -2.665273     0.455425
 C     7.262814    -4.046028     0.323142
 H     6.867649    -4.425917    -0.635502
 H     8.346371    -4.216848     0.352623
 H     6.790127    -4.607453     1.148165
 C     2.583570     1.445804    -1.454404
 H     3.076546     0.550128    -1.842454
 C     1.231489     2.537391     0.197802
 H     0.635891     2.527968     1.112208
 C     2.708561     2.634856    -2.152175
 H     3.284804     2.693740    -3.077362
 C     1.344895     3.743697    -0.496088
 H     0.843014     4.626696    -0.099888
 C     2.083922     3.799371    -1.680315
 O     2.250724     4.910646    -2.425275
 C     1.637451     6.096567    -2.008387
 H     2.003458     6.424025    -1.018951
 H     1.892360     6.862707    -2.751601
 H     0.538031     5.996630    -1.962296
