  88
scf done:    -3577.419854
 C    -0.706057    -1.987733     2.072680
 H    -1.613905    -2.601114     2.014479
 H     0.116741    -2.524847     2.560432
 C    -0.890949    -0.581677     2.454143
 H    -1.921882    -0.266210     2.673621
 H    -0.215659    -0.204088     3.236274
 H    -0.619665     0.206117     1.566720
Co    -0.255101    -0.956688     0.476431
 C     2.325055     1.270544     1.260741
 C     2.880090    -1.520908     1.357816
 C     2.659473    -0.159938    -1.252085
 C    -1.600520    -0.476197    -2.601869
 C    -3.342288    -1.269815    -0.385346
 C    -2.487199     1.534219    -0.732802
 P    -1.854010    -0.229944    -0.794966
 P     1.807720    -0.283317     0.424814
 C     0.002584    -2.389277    -0.386786
 O     0.206046    -3.369274    -0.974945
 H     1.877195     2.133734     0.751508
 H     1.944127     1.244765     2.292931
 H     3.415462     1.407411     1.265616
 H     2.664297    -1.303147     2.416425
 H     2.435972    -2.503331     1.150597
 C     4.348877    -1.501185     1.088584
 C     5.179502    -0.592306     1.757582
 H     4.747379     0.047769     2.530797
 C     4.918505    -2.366549     0.126470
 C     4.105110    -3.437304    -0.546586
 H     3.184713    -3.057294    -1.015429
 H     3.784519    -4.202592     0.179653
 H     4.692379    -3.944548    -1.324185
 C     6.536404    -0.491541     1.465243
 H     7.158661     0.229659     2.000166
 C     6.282945    -2.246280    -0.161512
 H     6.722354    -2.909973    -0.911358
 C     7.090248    -1.314872     0.488027
 H     8.151911    -1.244429     0.240225
 H     3.394350    -0.972956    -1.305600
 H     1.879786    -0.376303    -1.995434
 C     3.348708     1.141122    -1.529187
 C     4.731183     1.248114    -1.340009
 H     5.292654     0.366076    -1.021673
 C     2.618985     2.277328    -1.933225
 C     1.136898     2.194808    -2.161480
 H     0.640081     1.551670    -1.417128
 H     0.915151     1.761710    -3.152498
 H     0.670614     3.189976    -2.128785
 C     5.394584     2.456071    -1.539315
 H     6.474175     2.515062    -1.381968
 C     3.299116     3.482888    -2.130079
 H     2.732552     4.365730    -2.440097
 C     4.675283     3.580960    -1.934882
 H     5.182430     4.536103    -2.091070
 H    -0.660342     0.019718    -2.879184
 H    -1.475940    -1.553627    -2.785062
 H    -2.402538    -0.092600    -3.246606
 H    -3.005367    -2.291444    -0.641338
 H    -3.334026    -1.266567     0.715903
 C    -4.748036    -1.042669    -0.874944
 C    -5.039505    -0.374826    -2.068531
 H    -4.224033    -0.001986    -2.686409
 C    -5.824147    -1.533640    -0.098437
 C    -5.582654    -2.272222     1.186462
 H    -5.089916    -1.632845     1.938686
 H    -4.929393    -3.146821     1.040650
 H    -6.528212    -2.624729     1.620387
 C    -6.350165    -0.167956    -2.493544
 H    -6.540499     0.361216    -3.430202
 C    -7.134103    -1.318969    -0.536991
 H    -7.960861    -1.698719     0.069804
 C    -7.406414    -0.638285    -1.721049
 H    -8.439969    -0.482034    -2.038594
 H    -1.839795     2.081055    -1.436330
 H    -3.510981     1.572690    -1.131407
 C    -2.382702     2.149190     0.631825
 C    -1.132524     2.616535     1.058054
 H    -0.294081     2.568707     0.361349
 C    -3.479067     2.233186     1.515004
 C    -4.862565     1.822332     1.103520
 H    -4.923477     0.763871     0.815083
 H    -5.211374     2.395839     0.229565
 H    -5.579839     1.989455     1.918536
 C    -0.936188     3.124536     2.338153
 H     0.052838     3.477381     2.640097
 C    -3.265053     2.744963     2.801457
 H    -4.114624     2.808899     3.487056
 C    -2.010448     3.177685     3.222575
 H    -1.878045     3.569297     4.233939
