  60
scf done:    -2811.037448
 C    -0.791173    -1.869489     1.956141
 H    -0.451675    -1.998794     2.991007
 H    -1.891695    -1.880615     1.934655
 C    -0.142483    -2.784285     0.967283
 H     0.622908    -3.452045     1.386676
 H    -0.843885    -3.377595     0.359797
 H     0.443747    -2.194402     0.145825
Co     0.190836    -0.607421     0.844196
 C    -2.808947    -1.122991    -0.723075
 C    -2.737923     0.921586     1.349033
 C    -1.624117     1.538550    -1.225465
 C     1.910420     1.945774    -0.815393
 C     3.419659    -0.402303    -0.031383
 C     1.618068    -0.458465    -2.312496
 P     1.709979     0.102941    -0.546388
 P    -1.675807     0.170208     0.031610
 C     0.935109     0.057098     2.227885
 O     1.347140     0.548772     3.196522
 H    -2.626391    -1.989835    -0.064227
 C    -4.311345    -0.866700    -0.712313
 H    -4.842477    -1.739524    -1.127792
 H    -4.696260    -0.707624     0.304846
 H    -4.595201     0.005549    -1.318045
 C    -2.295690    -1.494079    -2.109798
 H    -1.209447    -1.670767    -2.094347
 H    -2.782205    -2.412408    -2.475745
 H    -2.499742    -0.700456    -2.846448
 H    -2.970999     0.100270     2.045425
 C    -2.063950     2.060794     2.097090
 H    -1.825522     2.904728     1.430104
 H    -1.126885     1.728616     2.565547
 H    -3.695349     1.253682     0.917029
 H    -2.721344     2.450232     2.889813
 H    -1.043649     1.147832    -2.076641
 C    -2.909410     2.186678    -1.715640
 H    -3.535737     2.544090    -0.884530
 H    -3.517252     1.495948    -2.317097
 H    -0.975993     2.298451    -0.760122
 H    -2.684639     3.058215    -2.350838
 H     1.098155     2.178388    -1.525605
 C     1.651610     2.719648     0.470811
 H     1.700954     3.804450     0.283392
 H     0.666734     2.477408     0.891636
 H     2.396772     2.481410     1.245842
 C     3.232391     2.357159    -1.454253
 H     3.454550     1.803810    -2.378883
 H     3.206690     3.427944    -1.713023
 H     4.075958     2.212115    -0.762623
 H     3.717660     0.336544     0.731938
 C     3.506872    -1.798822     0.565130
 H     3.274116    -2.581506    -0.171691
 H     2.789880    -1.902593     1.392632
 H     4.113486    -0.281568    -0.879674
 H     4.518105    -1.996802     0.952533
 H     2.403835     0.055252    -2.890287
 C     1.705968    -1.959849    -2.533117
 H     0.984455    -2.507669    -1.907533
 H     2.708343    -2.347383    -2.299195
 H     0.653752    -0.078037    -2.687968
 H     1.493618    -2.214191    -3.582818
