  72
scf done:    -2968.166764
 C    -2.059790    -2.336764    -1.649074
 H    -1.804399    -3.179511    -2.303243
 H    -2.892117    -2.616975    -0.992030
 C    -2.242955    -1.036987    -2.359041
 H    -2.086593    -1.072966    -3.446642
 H    -3.195090    -0.528042    -2.144983
 H    -1.464110    -0.234897    -2.010044
Co    -0.576420    -1.292900    -0.938956
 C    -1.927076     0.685286     1.640893
 C    -2.855516    -2.007371     1.558867
 C    -0.173177    -1.450706     2.400726
 C     2.255233     0.226722     0.313078
 C     2.002993     0.080097    -2.564956
 C     0.373680     1.973389    -1.096055
 P     0.980146     0.222518    -1.030910
 P    -1.380593    -0.994932     1.068559
 C     0.521289    -2.576024    -1.167447
 O     1.258521    -3.472274    -1.215027
 H    -2.356831     0.638568     2.655878
 H    -1.010756     1.298411     1.717280
 C    -2.905567     1.335195     0.673228
 H    -2.506859     1.237603    -0.351509
 H    -3.856266     0.773008     0.674223
 C    -3.186670     2.800464     0.971337
 H    -2.232030     3.359322     0.971043
 H    -3.587909     2.900336     1.996301
 C    -4.146942     3.447696    -0.016605
 H    -3.740610     3.335075    -1.037655
 H    -5.099507     2.888769    -0.013399
 C    -4.413539     4.916382     0.270145
 H    -5.109712     5.354634    -0.460915
 H    -3.482527     5.505197     0.237016
 H    -4.852496     5.054607     1.271405
 H    -3.638932    -1.794553     0.812787
 C    -2.564485    -3.500017     1.607354
 H    -1.912765    -3.757232     2.456188
 H    -2.055478    -3.831236     0.689826
 H    -3.242505    -1.646092     2.526362
 H    -3.491388    -4.083972     1.715912
 H     0.700061    -0.800528     2.244079
 C    -0.634501    -1.378810     3.847604
 H    -1.492516    -2.039785     4.042530
 H    -0.930126    -0.358585     4.135739
 H     0.172433    -2.464616     2.141540
 H     0.173737    -1.687105     4.529543
 H     1.814076     0.806080     1.143589
 H     2.300450    -0.816056     0.666274
 C     3.666021     0.719406     0.014634
 H     4.123999     0.078619    -0.756868
 H     3.645510     1.735139    -0.411810
 C     4.554033     0.715071     1.252106
 H     4.566919    -0.300645     1.687594
 H     4.105547     1.364802     2.026230
 C     5.981881     1.167150     0.979220
 H     6.425048     0.514771     0.206132
 H     5.962460     2.179845     0.538434
 C     6.863326     1.164673     2.217645
 H     7.887745     1.495067     1.988569
 H     6.929703     0.156869     2.658174
 H     6.463209     1.836153     2.994453
 H     2.559772    -0.864983    -2.451185
 C     1.157940     0.034336    -3.827085
 H     0.605265     0.974041    -3.986646
 H     0.423389    -0.782042    -3.758761
 H     2.747522     0.890847    -2.610301
 H     1.782730    -0.135470    -4.716990
 H    -0.246416     2.097274    -0.194352
 C     1.374201     3.111004    -1.215841
 H     2.028099     2.998682    -2.094053
 H     2.017169     3.184224    -0.326269
 H    -0.339798     1.993412    -1.937527
 H     0.852497     4.075492    -1.318996
