  76
scf done:    -3420.303237
 C     1.345527    -1.838222     1.928939
 H     1.456820    -2.887660     2.228062
 H     2.305700    -1.314199     2.025548
 C     0.171350    -1.141027     2.530392
 H    -0.490897    -1.775980     3.134804
 H     0.413913    -0.228578     3.096572
 H    -0.543649    -0.702697     1.712561
Co     0.263034    -1.465511     0.355618
 C     1.558710     0.005535    -2.386612
 C     1.476807     1.767759    -0.133132
 C     3.404172    -0.321005    -0.309157
 C    -1.753403    -1.758758    -2.395453
 C    -3.080345    -1.460840     0.095392
 C    -1.849199     0.808536    -1.076751
 P    -1.524970    -0.969133    -0.757233
 P     1.602215    -0.016645    -0.546467
 C     0.384325    -3.074814    -0.200002
 O     0.581555    -4.132585    -0.635779
 H     1.716533    -1.027401    -2.726957
 H     0.575254     0.349564    -2.737265
 H     2.345992     0.646493    -2.809491
 C     1.265419     2.779948    -1.070344
 H     1.196946     2.549523    -2.134223
 C     1.534033     2.108657     1.227214
 H     1.693995     1.317497     1.966073
 C     1.122743     4.102897    -0.648470
 H     0.949112     4.888762    -1.387819
 C     1.405517     3.426500     1.664060
 C     1.474080     3.773596     3.123083
 H     0.540905     4.251189     3.463471
 H     1.641689     2.881045     3.741938
 H     2.291021     4.483796     3.327109
 C     1.197898     4.425592     0.700751
 H     1.088292     5.466289     1.019334
 C     4.349501     0.703708    -0.216427
 H     4.031109     1.748503    -0.238815
 C     3.833308    -1.653432    -0.271352
 H     3.085098    -2.449745    -0.318881
 C     5.702428     0.387806    -0.090020
 H     6.440913     1.189857    -0.010907
 C     5.185502    -1.983631    -0.157962
 C     5.631106    -3.417154    -0.127422
 H     4.773136    -4.103260    -0.149235
 H     6.274074    -3.652616    -0.990861
 H     6.216853    -3.634092     0.779820
 C     6.116498    -0.940225    -0.063198
 H     7.180068    -1.175357     0.038600
 H    -1.715406    -2.845328    -2.235967
 H    -2.718041    -1.492288    -2.850770
 H    -0.928304    -1.485542    -3.067800
 C    -3.024747    -2.473034     1.055379
 H    -2.056270    -2.920599     1.294821
 C    -4.311083    -0.868389    -0.213222
 H    -4.351880    -0.063600    -0.953557
 C    -4.195144    -2.889727     1.689407
 H    -4.153810    -3.682890     2.440078
 C    -5.489731    -1.272913     0.417086
 C    -6.807063    -0.632855     0.086111
 H    -7.271337    -0.189835     0.981436
 H    -6.690412     0.163392    -0.662191
 H    -7.519559    -1.371568    -0.314499
 C    -5.412493    -2.295249     1.374123
 H    -6.324210    -2.624425     1.881274
 C    -2.003084     1.359284    -2.351488
 H    -1.968392     0.726302    -3.240638
 C    -1.901958     1.654546     0.038624
 H    -1.757802     1.230310     1.037206
 C    -2.207736     2.732998    -2.494892
 H    -2.319682     3.162544    -3.493604
 C    -2.129770     3.024506    -0.086013
 C    -2.232359     3.899586     1.127933
 H    -1.662837     3.479742     1.968759
 H    -1.848224     4.909824     0.927714
 H    -3.282079     4.000294     1.451155
 C    -2.275888     3.554766    -1.375521
 H    -2.437187     4.629206    -1.499145
