  60
scf done:    -2811.031468
 C    -0.956182    -2.563076    -0.828405
 H    -0.607378    -3.532873    -0.451576
 H    -2.044291    -2.589529    -0.961248
 C    -0.188633    -2.042087    -1.994585
 H     0.599485    -2.708557    -2.375015
 H    -0.811932    -1.700534    -2.835431
 H     0.412559    -1.072058    -1.725161
Co    -0.093479    -0.995480    -0.053731
 C    -1.711016     1.503260    -1.862195
 C    -3.439534    -0.366924    -0.603261
 C    -2.119828     1.682980     1.001238
 C     1.851306     0.943795     2.003021
 C     3.220822    -0.866890     0.313812
 C     1.995935     1.688660    -0.797694
 P     1.686867     0.216597     0.322711
 P    -1.758725     0.433288    -0.353367
 C     0.100742    -1.815413     1.417777
 O     0.167645    -2.340857     2.452713
 H    -0.740261     2.013277    -1.926525
 H    -1.795023     0.847128    -2.742449
 H    -2.511278     2.256958    -1.907289
 H    -3.233984    -1.061752    -1.437601
 C    -3.839001    -1.202843     0.607831
 H    -4.652726    -1.897777     0.345240
 H    -2.990359    -1.790176     0.987765
 H    -4.210577    -0.564612     1.424739
 C    -4.571516     0.555248    -1.037395
 H    -4.365779     1.063099    -1.990208
 H    -5.498509    -0.026135    -1.171815
 H    -4.787698     1.327787    -0.281644
 H    -3.188058     1.942100     0.897891
 C    -1.895775     1.062980     2.376042
 H    -2.147508     1.785905     3.169399
 H    -2.500410     0.161229     2.535338
 H    -0.847227     0.761351     2.500469
 C    -1.317358     2.970097     0.847527
 H    -1.549571     3.506080    -0.083528
 H    -1.534572     3.653064     1.684747
 H    -0.234044     2.776588     0.861375
 H     1.595453     0.163976     2.734569
 H     2.868589     1.307613     2.205694
 H     1.146788     1.775463     2.133500
 H     3.079873    -1.393300     1.276353
 C     3.169566    -1.928757    -0.776944
 H     4.002309    -2.640179    -0.656638
 H     2.224337    -2.485036    -0.717546
 H     3.249793    -1.492388    -1.784688
 C     4.569598    -0.160395     0.350933
 H     4.632006     0.605763     1.137377
 H     5.369883    -0.892826     0.545684
 H     4.802132     0.320272    -0.611491
 H     0.994554     2.152135    -0.791403
 C     2.982793     2.750891    -0.326968
 H     2.946331     3.616369    -1.009087
 H     2.746529     3.122895     0.680217
 H     4.019196     2.387619    -0.318654
 C     2.276330     1.245863    -2.229268
 H     1.543268     0.503336    -2.579124
 H     2.230325     2.107535    -2.914326
 H     3.278913     0.802398    -2.327842
