  48
scf done:    -2653.916776
 C    -0.883269    -2.080060    -1.448478
 H    -0.637464    -3.135595    -1.280067
 H    -1.958917    -1.976611    -1.634780
 C    -0.006363    -1.392330    -2.443711
 H     0.790023    -2.017375    -2.872236
 H    -0.548447    -0.888438    -3.258709
 H     0.582356    -0.496045    -1.969435
Co     0.040618    -0.782620    -0.331000
 C    -1.450519     2.420237    -0.276926
 C    -3.175171     0.294651    -1.060487
 C    -2.288115     0.555961     1.669173
 C     1.550931     1.248281     1.984298
 C     3.261481    -0.490156     0.543159
 C     2.188000     1.845211    -0.779849
 P     1.686203     0.452922     0.334307
 P    -1.636058     0.592612    -0.066921
 C     0.347504    -1.970889     0.843097
 O     0.473426    -2.756080     1.691057
 H    -0.624632     2.778765     0.354271
 H    -1.195514     2.642816    -1.324294
 H    -2.357420     2.980545    -0.003247
 H    -3.430984    -0.763011    -0.891492
 C    -4.385933     1.177072    -0.807051
 H    -4.185065     2.236005    -1.028904
 H    -4.726987     1.114799     0.237872
 H    -2.862519     0.351326    -2.117665
 H    -5.231551     0.868880    -1.441954
 H    -3.059983     1.335885     1.787782
 C    -2.814721    -0.804108     2.096583
 H    -2.043937    -1.579860     1.985998
 H    -3.685295    -1.110162     1.495432
 H    -1.440657     0.851880     2.308813
 H    -3.134183    -0.788269     3.150017
 H     1.288435     0.468449     2.714071
 H     2.487639     1.731868     2.299029
 H     0.744542     1.995475     1.981113
 H     3.054668    -1.213331     1.349314
 C     3.668251    -1.222930    -0.724263
 H     3.944879    -0.525498    -1.531088
 H     2.829313    -1.839467    -1.082964
 H     4.061523     0.177319     0.904913
 H     4.531045    -1.882522    -0.547369
 H     1.290338     2.471989    -0.897228
 C     3.389620     2.684118    -0.377473
 H     4.307519     2.080898    -0.307941
 H     3.239878     3.176613     0.595418
 H     2.347678     1.381113    -1.767790
 H     3.577267     3.477602    -1.117545
