 120
scf done:    -4492.960295
 C    -0.861908     2.658596    -2.004229
 H    -0.285783     3.007911    -2.869365
 H    -1.942551     2.742605    -2.175226
 C    -0.362546     3.102722    -0.691250
 H     0.600044     3.634450    -0.700735
 H    -1.088486     3.651499    -0.068685
 H    -0.163378     2.189175     0.060938
Co    -0.260062     1.035691    -1.114543
 C    -2.619147     0.951316     1.322056
 C    -3.486361    -0.596879    -0.888263
 C    -1.412827    -1.691610     0.582802
 C     2.436425    -1.036440    -1.241115
 C     3.012525     1.615420    -0.434200
 C     1.631787    -0.125837     1.482408
 P     1.646691     0.345738    -0.311831
 P    -1.899000    -0.029851    -0.078974
 C    -0.094607     0.309603    -2.631247
 O     0.002198    -0.148621    -3.697347
 H    -3.218591     0.333173     1.998417
 H    -1.755922     1.332065     1.890142
 C    -3.444232     2.100252     0.752719
 H    -2.963131     2.504347    -0.154207
 H    -4.419596     1.712017     0.413962
 C    -3.660977     3.228855     1.749625
 H    -2.677333     3.621081     2.070884
 H    -4.133157     2.826732     2.664941
 C    -4.501363     4.373680     1.202624
 H    -4.026248     4.757948     0.282390
 H    -5.483742     3.980703     0.886372
 C    -4.697505     5.510616     2.192340
 H    -5.308044     6.322162     1.767656
 H    -3.731643     5.946331     2.496263
 H    -5.200650     5.160587     3.108411
 C    -4.396186    -1.424547    -0.198043
 O    -4.150661    -1.639900     1.111976
 C    -4.789778    -2.690811     1.774033
 H    -4.313196    -2.773197     2.759662
 H    -5.868418    -2.500203     1.916331
 H    -4.659328    -3.646899     1.238979
 C    -3.778965    -0.305018    -2.236339
 O    -2.953348     0.542917    -2.863355
 C    -3.069620     0.758408    -4.237674
 H    -2.232767     1.410566    -4.516190
 H    -4.021172     1.255587    -4.498496
 H    -2.986156    -0.183199    -4.807437
 C    -4.887950    -0.872047    -2.882957
 H    -5.091960    -0.648913    -3.929233
 C    -5.506450    -1.994339    -0.835241
 H    -6.194063    -2.637803    -0.287698
 C    -5.734007    -1.716180    -2.176834
 H    -6.598333    -2.157017    -2.679832
 C    -1.320573    -2.064126     1.933369
 O    -1.513698    -1.092211     2.848171
 C    -1.688180    -1.428578     4.190968
 H    -1.891125    -0.489747     4.722754
 H    -2.542332    -2.115424     4.333449
 H    -0.783827    -1.885382     4.624756
 C    -1.138872    -2.680121    -0.383971
 O    -1.198906    -2.269897    -1.663459
 C    -0.898920    -3.151071    -2.706020
 H    -0.924985    -2.552816    -3.624484
 H    -1.636022    -3.970558    -2.772501
 H     0.111882    -3.581692    -2.595068
 C    -0.859836    -4.005046    -0.025806
 H    -0.678615    -4.761625    -0.788257
 C    -1.056139    -3.389740     2.304361
 H    -1.013595    -3.671307     3.355922
 C    -0.841861    -4.348811     1.320501
 H    -0.645499    -5.384272     1.610327
 H     1.789154    -1.913200    -1.102258
 H     2.333056    -0.721131    -2.290990
 C     3.889559    -1.345913    -0.922746
 H     4.516437    -0.492264    -1.231536
 H     4.028321    -1.441173     0.165680
 C     4.382323    -2.610706    -1.610535
 H     4.257175    -2.507611    -2.704143
 H     3.735750    -3.458931    -1.318786
 C     5.831388    -2.952478    -1.294914
 H     6.474370    -2.103334    -1.586824
 H     5.946878    -3.047734    -0.200181
 C     6.318625    -4.222195    -1.974091
 H     7.367801    -4.443771    -1.724989
 H     6.247445    -4.140385    -3.070800
 H     5.714236    -5.093392    -1.672606
 C     3.914773     1.992262     0.582256
 O     3.964296     1.211757     1.677547
 C     4.729708     1.587293     2.782140
 H     4.532293     0.838128     3.559759
 H     5.810302     1.596295     2.553021
 H     4.441629     2.582571     3.165249
 C     3.121136     2.303627    -1.663553
 O     2.409330     1.796250    -2.682626
 C     2.326540     2.468926    -3.905259
 H     1.619195     1.894698    -4.516581
 H     3.304243     2.507685    -4.417580
 H     1.945401     3.497172    -3.780666
 C     3.952215     3.421222    -1.816790
 H     3.997067     3.953566    -2.766050
 C     4.749059     3.110733     0.441149
 H     5.419918     3.405925     1.246978
 C     4.743708     3.826046    -0.749882
 H     5.394909     4.696612    -0.859489
 C     1.336252     0.897376     2.407254
 O     1.135065     2.120076     1.871453
 C     0.850639     3.211767     2.695749
 H     0.729324     4.077385     2.032513
 H    -0.083057     3.062279     3.266116
 H     1.673796     3.415967     3.402640
 C     1.834598    -1.413984     2.008058
 O     2.022360    -2.423287     1.134262
 C     2.480215    -3.662755     1.589308
 H     2.602148    -4.292789     0.698974
 H     1.753960    -4.148870     2.260183
 H     3.453255    -3.571113     2.104363
 C     1.845464    -1.640587     3.393635
 H     2.036548    -2.638990     3.783852
 C     1.310821     0.678832     3.786012
 H     1.097596     1.492534     4.477776
 C     1.594131    -0.594105     4.268683
 H     1.603350    -0.775393     5.346425
