  84
scf done:    -3125.278191
 C     1.631217    -1.330782     2.698873
 H     1.181640    -1.648898     3.647957
 H     2.445884    -2.012613     2.430105
 C     1.980608     0.115115     2.636291
 H     1.762955     0.691216     3.547155
 H     3.010595     0.323205     2.309291
 H     1.354225     0.681978     1.822319
Co     0.391841    -0.689862     1.333024
 C     2.304915    -0.104599    -1.583290
 C     2.974341    -2.474936    -0.095781
 C     0.593635    -2.424172    -1.739229
 C    -2.444564    -0.024074    -0.372626
 C    -2.039250     1.512993     2.079731
 C    -0.461858     2.163614    -0.438007
 P    -1.101699     0.763369     0.633138
 P     1.503585    -1.362515    -0.472266
 C    -0.812075    -1.708839     1.957267
 O    -1.612950    -2.464078     2.331492
 H     2.841323    -0.587882    -2.416414
 H     1.484264     0.467931    -2.044046
 C     3.214640     0.851981    -0.829251
 H     2.679441     1.216222     0.062698
 H     4.098071     0.312208    -0.443985
 C     3.670962     2.042916    -1.658925
 H     2.781124     2.566994    -2.054900
 H     4.225881     1.688274    -2.546547
 C     4.529130     3.030278    -0.880849
 H     3.966399     3.370593     0.006841
 H     5.417113     2.505463    -0.486105
 C     4.966200     4.232282    -1.701996
 H     5.583264     4.926663    -1.111905
 H     4.096969     4.796667    -2.076964
 H     5.558497     3.923647    -2.578480
 H     3.495560    -1.929898     0.711067
 C     2.504146    -3.810713     0.473202
 H     3.348119    -4.351718     0.930577
 H     1.726917    -3.675204     1.238761
 H     2.095101    -4.457720    -0.318695
 C     3.963275    -2.686164    -1.234369
 H     4.458190    -1.755371    -1.546039
 H     4.754967    -3.386037    -0.919793
 H     3.482121    -3.126161    -2.123433
 H     1.353173    -3.125434    -2.126799
 C    -0.517494    -3.234486    -1.082108
 H    -0.927021    -3.967829    -1.796397
 H    -0.179495    -3.777567    -0.190492
 H    -1.338559    -2.580558    -0.759963
 C     0.055508    -1.636835    -2.929454
 H     0.853899    -1.217008    -3.556320
 H    -0.555117    -2.294899    -3.568745
 H    -0.592515    -0.805280    -2.611230
 H    -2.010900    -0.165086    -1.376089
 H    -2.529336    -1.037867     0.049272
 C    -3.843933     0.566502    -0.485286
 H    -4.299676     0.637480     0.516293
 H    -3.813836     1.593361    -0.881834
 C    -4.744418    -0.281308    -1.375134
 H    -4.770269    -1.315671    -0.987066
 H    -4.297157    -0.353759    -2.383673
 C    -6.164952     0.253601    -1.489848
 H    -6.606578     0.323666    -0.479965
 H    -6.131778     1.289343    -1.872537
 C    -7.058808    -0.593094    -2.381380
 H    -8.077881    -0.182337    -2.443954
 H    -7.138455    -1.624480    -2.001922
 H    -6.660029    -0.651358    -3.407045
 H    -2.743496     0.691571     2.309961
 C    -1.138814     1.676098     3.299414
 H    -1.738200     1.962296     4.178703
 H    -0.615694     0.735754     3.519207
 H    -0.382005     2.461313     3.145430
 C    -2.842331     2.785115     1.827546
 H    -3.526429     2.706717     0.974298
 H    -3.449744     3.020462     2.716921
 H    -2.183775     3.649210     1.655122
 H     0.206015     1.595840    -1.106654
 C    -1.450907     2.914035    -1.321775
 H    -0.905038     3.622091    -1.967421
 H    -2.008778     2.237022    -1.984113
 H    -2.176984     3.497635    -0.739205
 C     0.419501     3.120452     0.359681
 H     1.128742     2.586867     1.009375
 H     1.008823     3.754780    -0.321885
 H    -0.176968     3.790392     0.996378
