  84
scf done:    -3125.302235
 C    -0.090623    -2.562863    -2.094727
 H     0.067056    -3.624735    -1.870859
 H    -0.970655    -2.456279    -2.746977
 C     1.126165    -1.837831    -2.572770
 H     2.041488    -2.444626    -2.619075
 H     0.997104    -1.305314    -3.527606
 H     1.420022    -0.959717    -1.856725
Co     0.211490    -1.308418    -0.637504
 C    -1.626247     0.421494    -2.969550
 C    -3.083829    -1.146717    -1.096476
 C    -2.006790     1.390942    -0.305669
 C     0.501562     0.568726     2.228273
 C     2.847593    -0.725516     1.329147
 C     1.890790     1.616202    -0.085175
 P     1.300058     0.031814     0.665357
 P    -1.529402    -0.151965    -1.218776
 C     0.107652    -2.523278     0.553702
 O    -0.075292    -3.315118     1.384838
 H    -0.866171     1.200170    -3.134401
 H    -1.394024    -0.423919    -3.633977
 H    -2.615512     0.817608    -3.243683
 H    -3.926716    -0.593051    -1.545429
 H    -2.913102    -2.035197    -1.725784
 C    -3.410800    -1.579661     0.324432
 H    -2.522672    -2.062607     0.763700
 H    -3.617983    -0.692511     0.950323
 C    -4.595219    -2.531808     0.408867
 H    -4.389951    -3.418707    -0.217743
 H    -5.490370    -2.054381    -0.031217
 C    -4.905770    -2.981514     1.829695
 H    -4.003902    -3.450800     2.260425
 H    -5.106713    -2.092760     2.454511
 C    -6.078670    -3.944352     1.917903
 H    -6.277131    -4.251105     2.956177
 H    -5.888593    -4.858337     1.332376
 H    -7.001538    -3.488798     1.523360
 H    -2.020873     1.108491     0.759922
 H    -1.159690     2.089862    -0.416753
 C    -3.309159     2.087151    -0.669946
 H    -3.306361     2.364274    -1.738056
 H    -4.154794     1.390196    -0.540614
 C    -3.565611     3.334811     0.165696
 H    -2.722236     4.038748     0.040362
 H    -3.567778     3.061465     1.236880
 C    -4.868931     4.043184    -0.176347
 H    -4.863635     4.311787    -1.247721
 H    -5.707479     3.335253    -0.051697
 C    -5.119772     5.286271     0.661831
 H    -6.068098     5.775037     0.391795
 H    -4.314581     6.026905     0.529180
 H    -5.165952     5.041472     1.735278
 H     0.088557    -0.322950     2.721839
 H     1.211142     1.061180     2.909510
 H    -0.326535     1.256958     2.012779
 H     3.381275    -0.007461     1.975152
 H     2.505818    -1.550436     1.977584
 C     3.752470    -1.272237     0.237005
 H     3.147629    -1.938484    -0.401456
 H     4.094809    -0.449242    -0.416979
 C     4.962761    -2.026830     0.766314
 H     4.617938    -2.850245     1.417611
 H     5.560656    -1.361220     1.415785
 C     5.850226    -2.591246    -0.334316
 H     5.243179    -3.248482    -0.981824
 H     6.190153    -1.765092    -0.984247
 C     7.053251    -3.357753     0.190616
 H     7.673535    -3.752905    -0.628150
 H     6.741176    -4.211653     0.813193
 H     7.695672    -2.715201     0.814300
 H     2.404401     1.330703    -1.019536
 H     0.979974     2.147947    -0.408793
 C     2.773439     2.531230     0.749385
 H     2.264666     2.786357     1.695212
 H     3.697350     2.000297     1.036669
 C     3.147128     3.817729     0.024325
 H     2.225093     4.356484    -0.261378
 H     3.651408     3.566671    -0.926713
 C     4.039723     4.741821     0.840911
 H     3.533377     4.985676     1.791786
 H     4.958590     4.198434     1.124354
 C     4.407692     6.024728     0.113309
 H     5.052462     6.670642     0.728198
 H     3.509526     6.606099    -0.150564
 H     4.947085     5.811881    -0.823719
