  54
scf done:    -2732.474213
 C     1.176551    -2.541644     0.543794
 H     0.998517    -3.478722     0.001958
 H     2.249944    -2.424043     0.737341
 C     0.304962    -2.343402     1.738090
 H    -0.426725    -3.143250     1.920038
 H     0.847972    -2.128586     2.670720
 H    -0.365771    -1.387591     1.634717
Co     0.119981    -0.997269     0.001527
 C     1.815150     1.681324     1.593763
 C     3.448044    -0.155003     0.161183
 C     1.759236     1.667383    -1.266660
 C    -1.809179     1.475524    -1.441815
 C    -3.201589    -0.780044    -0.287788
 C    -2.029817     1.209229     1.464920
 P    -1.669867     0.233104    -0.068675
 P     1.709680     0.490644     0.167756
 C    -0.181213    -1.669699    -1.533725
 O    -0.308886    -2.064990    -2.618406
 H     1.000272     2.412551     1.452547
 C     1.674089     0.991704     2.941552
 H     2.490220     0.272865     3.115751
 H     0.728416     0.431554     2.996731
 H     2.757924     2.251248     1.544228
 H     1.691602     1.715452     3.771134
 H     3.539737    -0.814335     1.039921
 C     3.794052    -0.917148    -1.108522
 H     3.835236    -0.248708    -1.982403
 H     3.038500    -1.688118    -1.320541
 H     4.147417     0.681081     0.327939
 H     4.775422    -1.408836    -1.023920
 H     0.807529     2.218645    -1.227930
 C     2.926196     2.636816    -1.366391
 H     3.890002     2.114803    -1.462586
 H     2.992034     3.296500    -0.487772
 H     1.691265     1.034026    -2.166045
 H     2.819162     3.284210    -2.251113
 H    -1.159696     1.088139    -2.241990
 C    -3.183927     1.804856    -2.006800
 H    -3.876396     2.188617    -1.244505
 H    -3.652862     0.924106    -2.468347
 H    -1.314878     2.388392    -1.068748
 H    -3.097149     2.573277    -2.790871
 H    -3.132704    -1.185752    -1.310831
 C    -3.303284    -1.919352     0.712199
 H    -3.375260    -1.553457     1.749034
 H    -2.413329    -2.561777     0.642553
 H    -4.096253    -0.137914    -0.254810
 H    -4.192674    -2.538036     0.518758
 H    -1.130161     1.823999     1.629572
 C    -3.283951     2.065175     1.527840
 H    -4.196692     1.476837     1.348196
 H    -3.258996     2.879708     0.788796
 H    -2.021958     0.467730     2.282031
 H    -3.387169     2.531050     2.520417
