 104
scf done:    -4035.352029
 C    -0.889170    -2.510468     2.340451
 H    -0.926293    -2.536668     3.435498
 H    -1.771948    -3.012433     1.922550
 C     0.408772    -2.930020     1.733365
 H     1.194464    -3.195471     2.453681
 H     0.321331    -3.710575     0.964314
 H     0.907403    -2.078625     1.104341
Co    -0.261388    -0.844390     1.538671
 C    -3.565919    -0.848687     0.869614
 O    -1.958694     0.288636    -0.993982
 O    -2.140183    -2.322223    -0.674226
 C     0.432870     2.175044     0.126327
 O     2.438456     1.053928     1.325648
 O     1.623726    -0.162622    -0.802000
 P     1.041904     0.524120     0.594173
 P    -1.869810    -0.902960     0.194438
 C    -0.508645     0.054255     2.986613
 O    -0.813558     0.674319     3.912650
 H    -4.273380    -1.029665     0.044465
 H    -3.632311    -1.713483     1.548674
 C    -3.890448     0.441435     1.605477
 H    -3.136601     0.625064     2.388736
 H    -3.822720     1.289613     0.905207
 C    -5.277519     0.430995     2.231319
 H    -5.352290    -0.413355     2.940547
 H    -6.031383     0.234157     1.447495
 C    -5.619940     1.728269     2.950073
 H    -4.856961     1.923151     3.724215
 H    -5.540667     2.566691     2.235212
 C    -7.002671     1.722977     3.581178
 H    -7.220996     2.673528     4.091120
 H    -7.098100     0.916841     4.326398
 H    -7.787159     1.563665     2.823767
 C    -3.026071     0.551269    -1.816538
 C    -3.609044    -0.454445    -2.591970
 H    -3.222835    -1.470240    -2.522930
 C    -3.485700     1.878259    -1.892795
 C    -2.831301     2.977124    -1.112646
 H    -3.481828     3.860984    -1.060743
 H    -2.584628     2.663238    -0.089275
 H    -1.884809     3.288534    -1.583021
 C    -4.674138    -0.153645    -3.436879
 H    -5.123798    -0.947698    -4.037464
 C    -4.557804     2.147648    -2.749665
 H    -4.928563     3.174549    -2.812444
 C    -5.156101     1.150069    -3.515258
 H    -5.993022     1.392955    -4.173561
 C    -1.150482    -2.976031    -1.353515
 C    -0.202834    -2.286358    -2.107585
 H    -0.231797    -1.197762    -2.145544
 C    -1.151553    -4.379715    -1.285250
 C    -2.188877    -5.089407    -0.470668
 H    -2.081366    -4.856166     0.601353
 H    -3.203847    -4.774564    -0.757048
 H    -2.110619    -6.178227    -0.592687
 C     0.784923    -2.994393    -2.789799
 H     1.532960    -2.447399    -3.368649
 C    -0.155248    -5.063197    -1.986385
 H    -0.139975    -6.155834    -1.943341
 C     0.812511    -4.384992    -2.728674
 H     1.582862    -4.945676    -3.262667
 H    -0.078058     2.001569    -0.834032
 H    -0.374199     2.389789     0.845552
 C     1.422546     3.330294     0.068140
 H     1.765130     3.558376     1.089583
 H     2.329280     3.035114    -0.481411
 C     0.823281     4.574372    -0.570772
 H    -0.099101     4.861177    -0.033262
 H     0.503233     4.338444    -1.603223
 C     1.782054     5.756187    -0.601388
 H     2.096789     5.990729     0.430716
 H     2.703458     5.457306    -1.132166
 C     1.192492     6.996299    -1.253064
 H     1.908383     7.832052    -1.259469
 H     0.289587     7.336166    -0.720579
 H     0.902028     6.799329    -2.297746
 C     3.410393     0.279674     1.903232
 C     3.100822    -0.760564     2.777070
 H     2.052662    -0.961273     3.001948
 C     4.740738     0.613848     1.600168
 C     5.048999     1.773578     0.704788
 H     4.639442     1.621551    -0.305213
 H     4.600739     2.700921     1.093239
 H     6.133661     1.921023     0.616107
 C     4.125986    -1.526812     3.328518
 H     3.880838    -2.346587     4.007875
 C     5.746156    -0.171123     2.170767
 H     6.787968     0.067798     1.940245
 C     5.452402    -1.239240     3.018071
 H     6.261396    -1.836618     3.444171
 C     2.730605     0.118558    -1.552738
 C     2.767818     1.241611    -2.378018
 H     1.904197     1.907173    -2.411333
 C     3.783972    -0.811673    -1.531762
 C     3.690480    -2.051856    -0.698032
 H     3.756566    -1.821739     0.376652
 H     2.729298    -2.561060    -0.863630
 H     4.504296    -2.747481    -0.942709
 C     3.894322     1.492679    -3.158506
 H     3.924710     2.377623    -3.798130
 C     4.899711    -0.535265    -2.328134
 H     5.733907    -1.241926    -2.320363
 C     4.968904     0.606900    -3.124678
 H     5.856998     0.795524    -3.731739
