  80
scf done:    -3720.957908
 C    -0.551717    -2.728873    -1.572501
 H    -0.352356    -3.801797    -1.683828
 H    -1.604950    -2.512990    -1.794195
 C     0.436366    -1.839519    -2.250342
 H     1.288524    -2.353768    -2.716233
 H     0.000867    -1.134894    -2.975619
 H     0.944208    -1.096997    -1.499462
Co     0.261137    -1.820801    -0.056171
 C    -1.590592    -0.442265     2.352110
 C    -1.714949     1.092344    -0.049447
 C    -3.115960    -1.370774     0.191417
 C     2.052629    -1.099366     2.783790
 C     3.461595    -0.924377     0.324116
 C     1.616280     1.121390     0.996464
 P     1.777364    -0.701499     1.015314
 P    -1.464434    -0.634145     0.523932
 C     0.496762    -3.282688     0.788535
 O     0.538700    -4.259626     1.414869
 H    -1.502685    -1.445950     2.790696
 H    -0.762414     0.179260     2.721989
 H    -2.549653    -0.000111     2.659139
 C    -1.634181     1.351058    -1.428538
 H    -1.449962     0.522994    -2.118724
 C    -1.938971     2.175355     0.800793
 H    -1.998344     2.026367     1.879657
 C    -1.784346     2.632851    -1.933202
 H    -1.727050     2.834267    -3.004766
 C    -2.083777     3.473963     0.311108
 H    -2.236596     4.291996     1.014840
 C    -2.003805     3.709685    -1.061693
 O    -2.105869     4.935120    -1.626746
 C    -2.489241     6.010742    -0.813121
 H    -1.750710     6.210672    -0.017317
 H    -2.558576     6.890649    -1.465411
 H    -3.472721     5.832131    -0.344218
 C    -3.260550    -2.759910     0.344368
 H    -2.383882    -3.362420     0.597172
 C    -4.240827    -0.625999    -0.164056
 H    -4.157004     0.455607    -0.294893
 C    -4.489061    -3.374144     0.166240
 H    -4.608362    -4.452704     0.285723
 C    -5.482372    -1.233891    -0.361621
 H    -6.336370    -0.618408    -0.645996
 C    -5.613255    -2.615715    -0.192590
 O    -6.765053    -3.297891    -0.356865
 C    -7.917844    -2.594949    -0.721549
 H    -7.800947    -2.089077    -1.696605
 H    -8.726219    -3.333120    -0.800623
 H    -8.197484    -1.840577     0.035486
 H     2.302804    -2.168019     2.838270
 H     2.877359    -0.511372     3.212036
 H     1.132910    -0.937140     3.362535
 C     4.502500    -0.014110     0.567694
 H     4.310345     0.886609     1.157466
 C     3.730868    -2.052102    -0.451540
 H     2.916448    -2.755546    -0.647926
 C     5.770376    -0.233442     0.055334
 H     6.587549     0.468178     0.233841
 C     5.003715    -2.287941    -0.971481
 H     5.177161    -3.181003    -1.572257
 C     6.033289    -1.375361    -0.718381
 O     7.293506    -1.504255    -1.174917
 C     7.619670    -2.623454    -1.950575
 H     7.029873    -2.662904    -2.883407
 H     8.682538    -2.529889    -2.206949
 H     7.467964    -3.566058    -1.395714
 C     1.462552     1.927164     2.131428
 H     1.498768     1.487503     3.130962
 C     1.569575     1.740133    -0.257165
 H     1.669199     1.132619    -1.161109
 C     1.260823     3.298372     2.013779
 H     1.131431     3.930005     2.894730
 C     1.390604     3.110344    -0.391399
 H     1.350586     3.546981    -1.388687
 C     1.219763     3.900637     0.751420
 O     1.000910     5.231483     0.717891
 C     1.109394     5.892900    -0.515510
 H     0.342846     5.556403    -1.234203
 H     0.962785     6.961383    -0.311387
 H     2.108057     5.750425    -0.964236
