 104
scf done:    -4035.345047
 C     0.584984     0.539873    -3.642018
 H     0.392790     1.360726    -4.342708
 H     1.666800     0.443769    -3.478299
 C    -0.104049    -0.747533    -3.962684
 H    -0.672470    -0.741789    -4.903002
 H     0.550178    -1.630816    -3.928526
 H    -0.942150    -1.012170    -3.191974
Co    -0.651833     0.359770    -2.141526
 C     2.124460     1.706392    -0.821699
 O     0.634902     0.089634     0.749905
 O     2.099840    -0.978931    -1.121742
 C    -2.354369     0.111752     0.850700
 O    -3.672053    -0.102036    -1.532914
 O    -2.343269    -2.055636    -0.738162
 P    -2.178374    -0.390986    -0.890630
 P     0.997269     0.264173    -0.878544
 C    -1.438347     1.863416    -2.485512
 O    -1.880788     2.915380    -2.653211
 H     2.910944     1.517666    -0.073293
 H     2.631527     1.760349    -1.798444
 C     1.380178     2.999522    -0.522602
 H     0.682494     3.221820    -1.345419
 H     0.744219     2.860251     0.368997
 C     2.305473     4.185324    -0.294404
 H     2.941013     4.332082    -1.186466
 H     3.003290     3.954567     0.532123
 C     1.558771     5.474615     0.017872
 H     0.862061     5.696331    -0.809351
 H     0.921276     5.315030     0.905975
 C     2.475442     6.663835     0.252777
 H     1.905895     7.578413     0.477028
 H     3.098151     6.868908    -0.632926
 H     3.158600     6.481611     1.098220
 C     1.502187    -0.117546     1.782119
 C     2.100619     0.952768     2.447360
 H     1.885836     1.974709     2.130827
 C     1.748664    -1.424289     2.204645
 H     1.265578    -2.246213     1.675913
 C     2.965681     0.705553     3.512162
 H     3.436482     1.550742     4.021839
 C     2.609795    -1.653319     3.272230
 H     2.799475    -2.682763     3.589708
 C     3.241253    -0.596884     3.942799
 C     4.153469    -0.856657     5.106530
 H     4.811043     0.001970     5.303460
 H     4.787379    -1.738929     4.932322
 H     3.577203    -1.048203     6.027129
 C     3.459748    -0.913426    -1.252173
 C     4.301669    -0.823226    -0.142886
 H     3.873501    -0.782548     0.859050
 C     4.013638    -0.996654    -2.531148
 H     3.345846    -1.088779    -3.390414
 C     5.682320    -0.798438    -0.325592
 H     6.328996    -0.727790     0.553559
 C     5.394961    -0.973850    -2.696346
 H     5.812334    -1.043182    -3.704882
 C     6.257904    -0.866601    -1.598909
 C     7.746174    -0.803937    -1.786408
 H     8.073841    -1.430678    -2.628992
 H     8.280409    -1.138035    -0.885330
 H     8.076583     0.226577    -2.000087
 H    -3.328944    -0.243859     1.222507
 H    -1.567311    -0.451906     1.375363
 C    -2.153756     1.605556     1.066081
 H    -1.330521     1.946913     0.418149
 H    -3.049437     2.158041     0.734880
 C    -1.821240     1.953381     2.508779
 H    -0.939287     1.363945     2.817084
 H    -2.645589     1.634786     3.172382
 C    -1.533190     3.432110     2.723918
 H    -0.741519     3.747832     2.020891
 H    -2.423758     4.024105     2.448673
 C    -1.110908     3.761265     4.146364
 H    -0.902944     4.834723     4.273000
 H    -0.199731     3.207760     4.426533
 H    -1.895049     3.486554     4.870240
 C    -4.857694    -0.236308    -0.857353
 C    -5.581002     0.917801    -0.558897
 H    -5.172527     1.885297    -0.858140
 C    -5.357688    -1.488140    -0.499569
 H    -4.779691    -2.379792    -0.743478
 C    -6.799816     0.816174     0.104698
 H    -7.358823     1.727143     0.336499
 C    -6.577505    -1.570241     0.168098
 H    -6.962544    -2.554432     0.449922
 C    -7.321544    -0.427251     0.482638
 C    -8.651678    -0.531354     1.171387
 H    -8.838206     0.335619     1.822121
 H    -8.717308    -1.440269     1.786815
 H    -9.475453    -0.571984     0.438938
 C    -1.384345    -2.852299    -0.174640
 C    -1.634764    -3.436562     1.066398
 H    -2.574375    -3.213754     1.575902
 C    -0.187678    -3.123478    -0.839539
 H     0.014629    -2.645407    -1.796510
 C    -0.694169    -4.296793     1.629826
 H    -0.901019    -4.750340     2.602992
 C     0.745251    -3.976220    -0.260989
 H     1.687021    -4.160149    -0.784724
 C     0.512161    -4.581754     0.980798
 C     1.539979    -5.487758     1.595045
 H     1.717009    -6.377133     0.969311
 H     1.228112    -5.835052     2.590078
 H     2.508916    -4.974039     1.703210
