  72
scf done:    -2968.130149
 C     0.864251    -2.681858     0.742116
 H     0.499083    -3.636988     0.343325
 H     1.958318    -2.721494     0.841849
 C     0.150251    -2.205579     1.959769
 H    -0.678811    -2.842015     2.295715
 H     0.800010    -1.982093     2.820299
 H    -0.356237    -1.167995     1.777361
Co    -0.005419    -1.069454     0.067407
 C     2.538074     0.330110     1.871840
 C     3.340051    -0.911980    -0.669752
 C     1.956018     1.759571    -0.687328
 C    -2.073247     1.066920    -1.706464
 C    -3.327157    -1.017162    -0.030218
 C    -2.181420     1.473322     1.259197
 P    -1.861827     0.170897    -0.056698
 P     1.927420     0.064751     0.112927
 C    -0.440942    -1.829554    -1.389242
 O    -0.676564    -2.311670    -2.421381
 H     2.292979    -0.651324     2.313964
 C     4.015446     0.570743     2.160518
 H     4.172198     0.621053     3.251325
 H     4.648770    -0.243790     1.782581
 H     4.385814     1.514608     1.736349
 C     1.648345     1.362049     2.557694
 H     0.589147     1.177016     2.329092
 H     1.774421     1.324853     3.651727
 H     1.887401     2.387625     2.236216
 H     3.601339    -1.610927     0.145792
 C     2.870370    -1.755245    -1.851749
 H     3.709282    -2.358717    -2.235688
 H     2.055685    -2.431045    -1.570534
 H     2.505568    -1.130993    -2.680871
 C     4.609058    -0.152717    -1.049932
 H     5.004245     0.477625    -0.245050
 H     5.397189    -0.873827    -1.322959
 H     4.447098     0.485125    -1.931250
 H     1.048880     2.199504    -0.237724
 C     3.094038     2.737995    -0.416399
 H     2.861593     3.705031    -0.893655
 H     3.233492     2.932955     0.655137
 H     4.053206     2.397979    -0.826267
 C     1.703584     1.600554    -2.184395
 H     0.890872     0.885272    -2.378624
 H     1.434213     2.566270    -2.640513
 H     2.601948     1.234426    -2.702463
 H    -1.440276     0.436128    -2.352313
 C    -3.453764     1.109153    -2.354109
 H    -3.356429     1.523945    -3.370778
 H    -3.911241     0.115868    -2.454768
 H    -4.154552     1.758699    -1.808702
 C    -1.465386     2.466306    -1.689788
 H    -0.512230     2.504945    -1.151721
 H    -1.276934     2.805156    -2.720336
 H    -2.139731     3.199704    -1.225822
 H    -3.303104    -1.387535    -1.071137
 C    -3.076284    -2.227388     0.862437
 H    -3.900711    -2.949936     0.749179
 H    -2.136096    -2.723843     0.592216
 H    -3.027127    -1.949074     1.926772
 C    -4.712799    -0.447421     0.255960
 H    -4.954478     0.447753    -0.327620
 H    -5.476066    -1.209068     0.026495
 H    -4.824695    -0.198506     1.321945
 H    -1.272984     2.093501     1.153803
 C    -3.392140     2.396155     1.120543
 H    -3.258460     3.275261     1.772420
 H    -3.543257     2.766896     0.099576
 H    -4.319702     1.901518     1.435131
 C    -2.158738     0.861596     2.657648
 H    -1.279638     0.225289     2.828474
 H    -2.145879     1.656879     3.420122
 H    -3.054818     0.248760     2.839466
