 108
scf done:    -3439.555522
 C     1.422497    -2.538884    -1.737985
 H     1.443720    -2.766213    -2.811005
 H     2.405075    -2.746573    -1.296836
 C     0.275699    -3.148203    -0.999726
 H    -0.414374    -3.740815    -1.617541
 H     0.561578    -3.731624    -0.111176
 H    -0.426099    -2.335311    -0.537818
Co     0.427965    -0.956386    -1.193099
 C     1.303827    -0.107681     2.099189
 C     3.429427    -1.164639     0.528680
 C     2.436100     1.449485    -0.055642
 C    -1.176899     1.981002    -0.494587
 C    -2.685510    -0.001167    -1.947675
 C    -2.225619    -0.377548     0.893430
 P    -1.366713     0.152996    -0.665787
 P     1.824908    -0.256620     0.323959
 C     0.542193    -0.254136    -2.742181
 O     0.707255     0.293374    -3.753440
 H     2.120608     0.291664     2.723626
 H     0.492025     0.640958     2.125083
 C     0.803334    -1.436272     2.649595
 H     0.148570    -1.905663     1.894387
 H     1.655053    -2.128204     2.773445
 C     0.051869    -1.320457     3.967349
 H    -0.816906    -0.649984     3.829713
 H     0.692062    -0.825142     4.719713
 C    -0.430038    -2.658271     4.510521
 H    -1.019195    -3.171874     3.729678
 H     0.442436    -3.309098     4.696462
 C    -1.260641    -2.533930     5.777111
 H    -1.584729    -3.517171     6.150363
 H    -2.165957    -1.930771     5.600296
 H    -0.690922    -2.043140     6.582553
 H     3.169888    -2.229342     0.660540
 H     3.915206    -0.842418     1.464348
 C     4.360171    -1.001830    -0.667239
 H     3.763361    -1.048706    -1.593852
 H     4.812865     0.005619    -0.650040
 C     5.483277    -2.037222    -0.749490
 H     5.006721    -3.035664    -0.784438
 C     6.277915    -1.854157    -2.036865
 H     5.625999    -1.916289    -2.921902
 H     7.062825    -2.619661    -2.139471
 H     6.770913    -0.867520    -2.055527
 C     6.397710    -1.995280     0.469597
 H     7.204952    -2.739873     0.388739
 H     5.851859    -2.199460     1.403081
 H     6.869909    -1.002708     0.568170
 H     1.545891     2.077664    -0.209657
 H     2.888400     1.353815    -1.055096
 C     3.386866     2.111760     0.930035
 H     2.858366     2.289984     1.881697
 H     4.224456     1.433335     1.174216
 C     3.971908     3.442691     0.445011
 H     3.124530     4.083802     0.135499
 C     4.703928     4.148273     1.580845
 H     4.039194     4.327583     2.440493
 H     5.107959     5.120546     1.258441
 H     5.551407     3.538765     1.937258
 C     4.889732     3.263622    -0.759585
 H     5.286791     4.231055    -1.103871
 H     4.373882     2.798023    -1.612392
 H     5.751024     2.624641    -0.500233
 H    -0.449789     2.125746     0.321581
 H    -0.648848     2.284800    -1.415375
 C    -2.390917     2.869173    -0.264439
 H    -3.164061     2.666299    -1.024851
 H    -2.850091     2.632108     0.709741
 C    -2.040932     4.351512    -0.294419
 H    -1.587130     4.598218    -1.271407
 H    -1.256950     4.556571     0.457617
 C    -3.233176     5.264237    -0.043929
 H    -4.014587     5.051000    -0.794871
 H    -3.682865     5.011842     0.932991
 C    -2.880296     6.742380    -0.078283
 H    -3.761409     7.375502     0.105716
 H    -2.462198     7.030227    -1.056256
 H    -2.126546     6.990978     0.686157
 H    -2.305327     0.541137    -2.830603
 H    -3.602992     0.509003    -1.616780
 C    -2.945020    -1.455692    -2.311685
 H    -1.977576    -1.903451    -2.593951
 H    -3.287520    -2.014473    -1.419637
 C    -3.954894    -1.672212    -3.439383
 H    -3.606363    -1.084316    -4.309282
 C    -3.979545    -3.140897    -3.846401
 H    -2.980112    -3.488339    -4.150761
 H    -4.669432    -3.316239    -4.686458
 H    -4.311290    -3.774166    -3.006188
 C    -5.352102    -1.185783    -3.069915
 H    -6.064300    -1.356931    -3.892054
 H    -5.370140    -0.110091    -2.838285
 H    -5.731266    -1.725204    -2.184918
 H    -1.679676     0.117510     1.714799
 H    -1.999090    -1.449361     1.000884
 C    -3.723877    -0.145610     1.036706
 H    -3.973548     0.898700     0.794742
 H    -4.267582    -0.761264     0.298561
 C    -4.272862    -0.460286     2.432240
 H    -3.718129     0.169747     3.154139
 C    -5.747069    -0.082111     2.516685
 H    -5.906503     0.978853     2.268107
 H    -6.150621    -0.256435     3.526091
 H    -6.345604    -0.682405     1.811173
 C    -4.061472    -1.917622     2.827021
 H    -4.480879    -2.122800     3.824054
 H    -2.996353    -2.189873     2.858371
 H    -4.560119    -2.592790     2.111096
