  94
scf done:    -3655.987458
 C     0.350451    -2.300169     2.611505
 H     0.383425    -3.389909     2.731511
 H     1.181432    -1.845377     3.165315
 C    -0.982597    -1.686276     2.885005
 H    -1.781802    -2.404142     3.116486
 H    -0.980972    -0.890849     3.646051
 H    -1.396694    -1.110979     1.960622
Co    -0.128031    -1.604159     0.853320
 C     2.024454     1.161080     1.780213
 C     3.066674    -1.430073     1.085592
 C     1.975172     0.444381    -1.002306
 C    -0.926121    -1.493661    -2.407033
 C    -3.115963    -1.955744    -0.516696
 C    -2.049785     0.750372    -1.063548
 P    -1.508690    -0.992653    -0.722763
 P     1.619741    -0.294597     0.699821
 C     0.167854    -3.123640     0.130986
 O     0.529227    -4.113769    -0.358043
 H     1.401471     1.995161     1.422808
 C     1.766368     0.930957     3.259279
 H     2.408296     0.140542     3.678388
 H     0.722192     0.635612     3.442237
 H     3.066477     1.466601     1.591953
 H     1.962313     1.847470     3.836836
 H     3.107623    -1.418355     2.185195
 H     2.706907    -2.429487     0.815012
 C     4.421755    -1.168298     0.518531
 C     5.308186    -0.302654     1.170568
 H     4.994730     0.168559     2.105898
 C     4.835761    -1.807677    -0.671231
 C     3.952957    -2.799894    -1.374283
 H     2.952497    -2.399061    -1.597778
 H     3.783528    -3.697037    -0.756842
 H     4.404844    -3.126274    -2.320917
 C     6.572610    -0.032961     0.655996
 H     7.241635     0.653190     1.180307
 C     6.110551    -1.526059    -1.175606
 H     6.432677    -2.017199    -2.098019
 C     6.974280    -0.643091    -0.529723
 H     7.962895    -0.441666    -0.948929
 H     2.446334    -0.365201    -1.578689
 H     0.981019     0.596631    -1.443314
 C     2.791356     1.703377    -1.114143
 C     4.178797     1.623516    -1.280141
 H     4.647086     0.642641    -1.356697
 C     2.188787     2.980903    -1.073340
 C     0.699567     3.158014    -1.014551
 H     0.224193     2.588494    -0.203757
 H     0.227210     2.831525    -1.956785
 H     0.432893     4.213548    -0.868527
 C     4.974767     2.762376    -1.354310
 H     6.055220     2.656709    -1.476422
 C     3.003682     4.116396    -1.142431
 H     2.532269     5.102418    -1.102445
 C     4.386463     4.020440    -1.270958
 H     4.996532     4.925626    -1.319980
 H    -0.772122    -2.582231    -2.332731
 C    -1.760734    -1.140725    -3.625293
 H    -1.875895    -0.054220    -3.752033
 H    -2.768073    -1.577757    -3.576514
 H     0.086481    -1.068544    -2.495411
 H    -1.283471    -1.526231    -4.539352
 H    -3.039690    -2.779541    -1.243515
 H    -3.016950    -2.420934     0.472753
 C    -4.444562    -1.271150    -0.651259
 C    -5.106316    -1.254756    -1.885876
 H    -4.635138    -1.737694    -2.745359
 C    -5.077054    -0.681423     0.465570
 C    -4.445254    -0.701515     1.824730
 H    -3.473644    -0.186185     1.826332
 H    -4.271661    -1.732361     2.173739
 H    -5.084323    -0.198844     2.562516
 C    -6.358690    -0.666155    -2.040567
 H    -6.850316    -0.675663    -3.016035
 C    -6.334681    -0.092255     0.294162
 H    -6.820509     0.363824     1.160850
 C    -6.977387    -0.077741    -0.940800
 H    -7.960281     0.388439    -1.041308
 H    -1.185430     1.213315    -1.569870
 H    -2.855369     0.704521    -1.807453
 C    -2.462025     1.593941     0.112461
 C    -1.688236     1.603814     1.279337
 H    -0.808630     0.956053     1.321402
 C    -3.606125     2.416215     0.042842
 C    -4.432677     2.511483    -1.205839
 H    -4.822875     1.531187    -1.516821
 H    -3.842715     2.912774    -2.046118
 H    -5.293724     3.176484    -1.055044
 C    -2.040720     2.374413     2.383777
 H    -1.418023     2.356223     3.281653
 C    -3.953427     3.175255     1.166344
 H    -4.846799     3.803957     1.117339
 C    -3.189918     3.157672     2.331386
 H    -3.489141     3.763329     3.190186
