  80
scf done:    -3721.092618
 C     0.993774    -2.827651     2.213700
 H     1.097804    -3.881626     1.930772
 H     1.941546    -2.453877     2.624376
 C    -0.225227    -2.503316     3.012996
 H    -0.880594    -3.360066     3.220066
 H    -0.028333    -1.954971     3.945882
 H    -0.947957    -1.764328     2.455941
Co    -0.001695    -1.679991     0.987349
 C     1.384534     0.967479     2.583874
 O     3.052296    -0.381591     1.224877
 O     1.300015     0.904652    -0.176419
 C    -1.463043    -0.045735    -1.584765
 O    -3.057982    -0.899377     0.440124
 O    -1.485743     1.060171     0.944444
 P    -1.481135    -0.422858     0.186164
 P     1.407254    -0.131381     1.135856
 C    -0.053676    -2.853052    -0.274426
 O     0.011990    -3.588717    -1.164997
 H     0.412747     1.479251     2.601314
 H     1.466610     0.329250     3.476618
 H     2.216919     1.683499     2.580308
 C     3.845568    -1.040604     0.323627
 C     3.450082    -2.218011    -0.305537
 H     2.465602    -2.627658    -0.085981
 C     5.107310    -0.468536     0.088373
 C     5.503747     0.791845     0.792342
 H     4.823804     1.619224     0.535534
 H     5.452641     0.667089     1.885081
 H     6.526077     1.088569     0.521510
 C     4.310501    -2.836998    -1.210211
 H     3.992393    -3.755624    -1.708454
 C     5.949756    -1.114564    -0.819503
 H     6.934371    -0.682066    -1.017963
 C     5.561633    -2.285127    -1.472723
 H     6.240219    -2.766061    -2.180807
 C     2.195654     1.869579    -0.555416
 C     2.271786     3.073893     0.148956
 H     1.609155     3.232198     1.000278
 C     2.969960     1.649278    -1.706479
 C     2.843125     0.395860    -2.518956
 H     3.780741    -0.180892    -2.505142
 H     2.050039    -0.255760    -2.134144
 H     2.618185     0.639341    -3.569081
 C     3.166820     4.061116    -0.252175
 H     3.226087     4.998830     0.304972
 C     3.860326     2.661005    -2.085745
 H     4.478819     2.503430    -2.973806
 C     3.974169     3.848653    -1.368723
 H     4.682806     4.615192    -1.690063
 H    -1.610845    -0.991671    -2.125970
 H    -2.238486     0.670190    -1.886266
 H    -0.462995     0.345492    -1.813260
 C    -4.048076    -1.024099    -0.504746
 C    -4.777135     0.096255    -0.903578
 H    -4.529154     1.071780    -0.480577
 C    -4.333787    -2.303398    -1.006133
 C    -3.536087    -3.494750    -0.571275
 H    -2.647951    -3.639122    -1.207894
 H    -3.167719    -3.372020     0.456340
 H    -4.135867    -4.413545    -0.632914
 C    -5.806787    -0.043056    -1.830199
 H    -6.374713     0.836048    -2.142979
 C    -5.379267    -2.413277    -1.929913
 H    -5.622954    -3.401898    -2.328762
 C    -6.108687    -1.301947    -2.345962
 H    -6.917677    -1.420944    -3.070197
 C    -2.240163     2.155628     0.615093
 C    -1.826510     2.993393    -0.419452
 H    -0.906703     2.753752    -0.955651
 C    -3.378137     2.442643     1.386437
 C    -3.761548     1.555119     2.530385
 H    -4.662121     1.929956     3.034826
 H    -3.946809     0.525738     2.189534
 H    -2.946690     1.498445     3.269544
 C    -2.578282     4.122900    -0.735647
 H    -2.257198     4.777696    -1.548805
 C    -4.111845     3.584067     1.047330
 H    -5.004627     3.825013     1.630775
 C    -3.729229     4.413445    -0.006494
 H    -4.325368     5.296147    -0.248248
