  92
scf done:    -3878.204622
 C     0.733649    -0.317123    -3.496038
 H     0.612133     0.381745    -4.331723
 H     1.803336    -0.472820    -3.301580
 C    -0.062595    -1.578254    -3.597282
 H    -0.629643    -1.688567    -4.531888
 H     0.513457    -2.494197    -3.401041
 H    -0.919068    -1.633785    -2.803448
Co    -0.514640    -0.127087    -2.006194
 C     2.367836     1.194587    -0.900886
 O     0.741379     0.006888     0.903928
 O     2.113886    -1.490468    -0.726426
 C    -2.232946     0.307886     0.956352
 O    -3.560700    -0.220010    -1.371243
 O    -2.406061    -2.101306    -0.215180
 P    -2.096851    -0.512240    -0.663644
 P     1.121043    -0.134441    -0.723966
 C    -1.172040     1.352735    -2.621413
 O    -1.525503     2.390923    -2.977874
 H     3.127046     1.082482    -0.110138
 H     2.888431     1.025896    -1.857280
 C     1.735278     2.578203    -0.862257
 H     1.071857     2.704735    -1.732268
 H     1.076146     2.657579     0.019764
 C     2.757915     3.703801    -0.822653
 H     3.416943     3.632459    -1.706809
 H     3.420394     3.568942     0.052662
 C     2.122860     5.086269    -0.769417
 H     1.460870     5.212221    -1.643923
 H     1.460566     5.144165     0.113000
 C     3.137141     6.217097    -0.723304
 H     2.646974     7.201602    -0.684010
 H     3.788669     6.205455    -1.611905
 H     3.788811     6.134314     0.161624
 C     1.583483    -0.069182     1.973445
 C     2.236202     1.070230     2.450229
 H     2.082342     2.027942     1.950449
 C     1.738455    -1.295803     2.621299
 H     1.208876    -2.166176     2.232674
 C     3.068186     0.969289     3.564353
 H     3.581046     1.860377     3.934194
 C     2.568504    -1.383586     3.735855
 H     2.690430    -2.346249     4.238149
 C     3.242327    -0.256101     4.207124
 H     3.895132    -0.329847     5.079582
 C     3.472133    -1.567174    -0.859112
 C     4.325961    -1.335083     0.221782
 H     3.906606    -1.067021     1.191946
 C     3.998501    -1.937697    -2.099088
 H     3.311889    -2.130410    -2.926118
 C     5.703055    -1.460062     0.048549
 H     6.365427    -1.275065     0.897664
 C     5.376160    -2.062854    -2.260339
 H     5.780197    -2.353173    -3.233172
 C     6.235070    -1.820161    -1.188797
 H     7.315415    -1.915948    -1.316922
 H    -3.235572     0.108694     1.368105
 H    -1.499816    -0.217514     1.588001
 C    -1.903844     1.793363     0.905082
 H    -1.046635     1.939463     0.228528
 H    -2.743213     2.350601     0.455546
 C    -1.558272     2.368177     2.270025
 H    -0.738437     1.769520     2.705739
 H    -2.416494     2.250557     2.956235
 C    -1.137621     3.829930     2.221970
 H    -0.311244     3.940424     1.496888
 H    -1.966106     4.437797     1.817767
 C    -0.705226     4.375421     3.573053
 H    -0.400732     5.431199     3.508963
 H     0.147179     3.804336     3.975968
 H    -1.520738     4.308509     4.311086
 C    -4.755247    -0.127566    -0.706234
 C    -5.372844     1.121962    -0.641259
 H    -4.876811     1.975826    -1.107284
 C    -5.361558    -1.251502    -0.142325
 H    -4.860015    -2.216604    -0.216755
 C    -6.601344     1.249110     0.002387
 H    -7.085303     2.227492     0.051826
 C    -6.589093    -1.109847     0.502615
 H    -7.066073    -1.987745     0.945344
 C    -7.211588     0.135692     0.580052
 H    -8.174379     0.237858     1.085488
 C    -1.529207    -2.873163     0.494373
 C    -1.860064    -3.225883     1.804836
 H    -2.784520    -2.837705     2.237006
 C    -0.352278    -3.347437    -0.086354
 H    -0.093191    -3.041473    -1.098568
 C    -1.020132    -4.072529     2.524728
 H    -1.285757    -4.353269     3.546682
 C     0.485799    -4.185955     0.644538
 H     1.411826    -4.542146     0.188005
 C     0.153818    -4.558135     1.947127
 H     0.811550    -5.221082     2.513601
