 112
scf done:    -3591.889256
 C     1.546058     0.340151     2.993781
 H     1.152078     0.101482     3.989768
 H     2.608297     0.072790     2.944376
 C     1.221275     1.711743     2.514173
 H     0.637832     2.327887     3.213386
 H     2.087586     2.287079     2.155326
 H     0.538393     1.690695     1.560817
Co     0.364003    -0.047161     1.489382
 C     2.343246     0.701581    -1.377323
 C     3.621673    -0.805591     0.692494
 C     1.689125    -2.084645    -1.053113
 C    -2.249955    -1.267857    -0.305852
 C    -2.860246     0.899601     1.535705
 C    -1.399529     1.446978    -1.071984
 P    -1.512340     0.285468     0.386634
 P     1.917399    -0.516959    -0.037633
 C    -0.317041    -1.326742     2.368064
 O    -0.730066    -2.255305     2.933667
 H     3.122364     0.290098    -2.040615
 H     1.444686     0.820717    -2.002921
 C     2.755209     2.065441    -0.845782
 H     1.925268     2.477989    -0.249104
 H     3.602804     1.966872    -0.144628
 C     3.131615     3.050352    -1.943640
 H     2.329194     3.073804    -2.703626
 H     4.028810     2.683799    -2.474836
 C     3.379686     4.462600    -1.433920
 H     2.473445     4.816676    -0.910583
 H     4.174857     4.437087    -0.667789
 C     3.753359     5.445696    -2.531092
 H     3.923388     6.457067    -2.131872
 H     2.956986     5.517175    -3.289590
 H     4.673707     5.134214    -3.050923
 H     3.763518     0.075622     1.346209
 C     4.805338    -0.845964    -0.273692
 H     4.841112     0.061556    -0.895001
 H     4.689601    -1.696541    -0.970164
 C     6.128914    -0.985554     0.477803
 H     6.963817    -1.047549    -0.239651
 H     6.297662    -0.067606     1.069919
 C     6.137695    -2.188706     1.412955
 H     7.085104    -2.230653     1.974777
 H     6.092035    -3.115167     0.811636
 C     4.947080    -2.155616     2.363723
 H     5.043598    -1.292175     3.046931
 H     4.935738    -3.054976     3.000665
 C     3.635929    -2.041745     1.594790
 H     3.519564    -2.943767     0.968683
 H     2.773570    -2.017780     2.278154
 H     2.707391    -2.463272    -1.261774
 C     1.010168    -1.849076    -2.405512
 H     1.604876    -1.160448    -3.022885
 H     0.035571    -1.354128    -2.245113
 C     0.797270    -3.149881    -3.175815
 H     0.268703    -2.941332    -4.120786
 H     1.783962    -3.560211    -3.458129
 C     0.045231    -4.190742    -2.356644
 H    -0.057687    -5.127477    -2.928319
 H    -0.981795    -3.832058    -2.161109
 C     0.746854    -4.441425    -1.028220
 H     1.732659    -4.904563    -1.218291
 H     0.177611    -5.162459    -0.419457
 C     0.932208    -3.144667    -0.250189
 H    -0.050616    -2.733206     0.018059
 H     1.431349    -3.339255     0.708772
 H    -1.674334    -1.482369    -1.220520
 H    -1.950928    -2.048168     0.411792
 C    -3.740018    -1.420624    -0.581261
 H    -4.308925    -1.282247     0.353232
 H    -4.100251    -0.646699    -1.276902
 C    -4.064162    -2.793773    -1.156592
 H    -3.687734    -3.574076    -0.470441
 H    -3.505111    -2.934465    -2.100211
 C    -5.548183    -3.015172    -1.412164
 H    -6.101795    -2.875133    -0.466802
 H    -5.919279    -2.228892    -2.093553
 C    -5.862208    -4.385065    -1.991371
 H    -6.940982    -4.516569    -2.164825
 H    -5.533541    -5.189258    -1.313622
 H    -5.348997    -4.538578    -2.954412
 H    -3.182711    -0.051927     2.003623
 C    -4.094131     1.567711     0.924106
 H    -4.527997     0.954110     0.124047
 H    -3.797478     2.522393     0.457821
 C    -5.151942     1.852128     1.988531
 H    -6.023550     2.345932     1.528361
 H    -5.518222     0.892520     2.396764
 C    -4.592870     2.701363     3.123361
 H    -5.360188     2.864204     3.897626
 H    -4.330875     3.700884     2.730361
 C    -3.349632     2.058804     3.726112
 H    -3.632466     1.112409     4.221604
 H    -2.922871     2.703242     4.511889
 C    -2.295179     1.762120     2.666459
 H    -1.912999     2.712205     2.251383
 H    -1.432359     1.240925     3.106002
 H    -0.475005     1.071567    -1.546892
 C    -1.107887     2.883251    -0.628543
 H    -0.297058     2.893262     0.116777
 H    -1.995245     3.300826    -0.123652
 C    -0.746400     3.773340    -1.812413
 H    -0.573731     4.806640    -1.469791
 H     0.208723     3.426436    -2.244226
 C    -1.825981     3.736515    -2.887107
 H    -1.531838     4.354633    -3.750759
 H    -2.753400     4.184380    -2.485882
 C    -2.111787     2.306050    -3.328108
 H    -1.212664     1.892337    -3.820415
 H    -2.914384     2.287363    -4.083300
 C    -2.486598     1.412591    -2.147086
 H    -3.448703     1.749315    -1.728860
 H    -2.638652     0.381952    -2.501990
