 104
scf done:    -4035.193860
 C    -1.626171    -1.255620    -2.805541
 H    -1.475682    -2.231762    -3.283270
 H    -2.697404    -1.041582    -2.708604
 C    -0.810692    -0.152939    -3.383203
 H    -0.108493    -0.450300    -4.174545
 H    -1.393682     0.720318    -3.714488
 H    -0.125083     0.336679    -2.573403
Co    -0.465584    -0.807328    -1.300874
 C    -1.762394     2.192617     0.026008
 C    -3.694881     0.204910    -0.753634
 C    -2.168859    -0.165269     1.608115
 C     1.395802     1.109209     0.944760
 C     2.023070    -1.692096     0.761995
 C     2.838282     0.238559    -1.317750
 P     1.414260    -0.296499    -0.260598
 P    -1.965560     0.349716    -0.150061
 C    -0.333825    -2.485574    -1.076783
 O    -0.362509    -3.638484    -0.925887
 H    -2.721782     2.663944     0.279235
 H    -1.123445     2.324672     0.913427
 C    -1.102322     2.839669    -1.181131
 H    -0.228483     2.232305    -1.472595
 H    -1.779559     2.803168    -2.052925
 C    -0.652791     4.272679    -0.940277
 H    -0.005313     4.300220    -0.043638
 H    -1.525933     4.903890    -0.693987
 C     0.100194     4.872517    -2.119646
 H     0.967663     4.229109    -2.352758
 H    -0.544907     4.839525    -3.015668
 C     0.570808     6.297331    -1.877860
 H     1.114213     6.700277    -2.746010
 H     1.246396     6.351280    -1.008843
 H    -0.278134     6.970124    -1.675019
 C    -4.414429     1.254682    -1.321529
 H    -3.977398     2.255083    -1.345470
 C    -4.278284    -1.081013    -0.748627
 O    -3.531299    -2.054137    -0.204425
 C    -3.876723    -3.397463    -0.387299
 H    -4.785642    -3.668110     0.178650
 H    -3.027606    -3.985891    -0.018349
 H    -4.032127    -3.630241    -1.454844
 C    -5.685241     1.057944    -1.866085
 H    -6.227661     1.897504    -2.306160
 C    -5.550945    -1.285631    -1.289100
 H    -5.999771    -2.279522    -1.279046
 C    -6.249259    -0.213029    -1.844301
 H    -7.243349    -0.381926    -2.265592
 C    -1.408132    -1.235931     2.072960
 H    -0.727875    -1.717056     1.367722
 C    -3.094297     0.433631     2.488685
 O    -3.839708     1.444517     1.996917
 C    -4.881281     1.973685     2.764338
 H    -5.604947     1.194741     3.061052
 H    -5.392976     2.709027     2.130218
 H    -4.510660     2.481064     3.672804
 C    -1.517105    -1.701979     3.382824
 H    -0.901503    -2.540774     3.714368
 C    -3.212671    -0.030181     3.803692
 H    -3.922350     0.431088     4.490987
 C    -2.420713    -1.091016     4.244610
 H    -2.525008    -1.440501     5.275059
 H     0.979294     1.946290     0.363025
 H     0.626646     0.860456     1.696193
 C     2.695694     1.545467     1.600851
 H     3.177346     0.692604     2.104796
 H     3.404010     1.867718     0.819608
 C     2.488556     2.682835     2.591609
 H     1.782420     2.360874     3.379158
 H     1.995098     3.529954     2.079512
 C     3.778884     3.166810     3.237939
 H     4.268547     2.315778     3.743963
 H     4.480267     3.485444     2.446395
 C     3.572431     4.302029     4.227519
 H     4.522082     4.629581     4.677409
 H     2.902458     3.999011     5.048358
 H     3.115902     5.178409     3.739584
 C     1.884858    -1.717168     2.148608
 H     1.495192    -0.842790     2.671517
 C     2.510253    -2.845617     0.115880
 O     2.649240    -2.748368    -1.218141
 C     2.807349    -3.910914    -1.983095
 H     3.779334    -4.399549    -1.792946
 H     2.769526    -3.597007    -3.033793
 H     1.988489    -4.623173    -1.788731
 C     2.210590    -2.854370     2.891075
 H     2.089061    -2.848568     3.976373
 C     2.827379    -3.989764     0.849340
 H     3.188263    -4.885635     0.343516
 C     2.678322    -3.988137     2.236707
 H     2.928170    -4.888440     2.803381
 C     2.552696     0.977516    -2.466173
 H     1.509591     1.173565    -2.717782
 C     4.197673     0.004824    -1.010327
 O     4.462391    -0.653776     0.130157
 C     5.772326    -1.017031     0.450547
 H     6.226422    -1.644522    -0.336210
 H     5.710894    -1.599256     1.378933
 H     6.415296    -0.134969     0.619915
 C     3.551121     1.470238    -3.306556
 H     3.283757     2.047354    -4.193893
 C     5.204933     0.471487    -1.862786
 H     6.252148     0.277426    -1.630015
 C     4.880297     1.202174    -3.004311
 H     5.680628     1.564256    -3.654339
