  86
scf done:    -3799.657411
 C     0.895906    -3.070704     0.816542
 H     1.214367    -3.915345     0.195933
 H     1.657019    -2.853391     1.575367
 C    -0.507866    -3.127483     1.311233
 H    -1.106496    -3.967380     0.934993
 H    -0.610280    -3.058585     2.404474
 H    -1.138163    -2.194532     0.982270
Co     0.081474    -1.548938    -0.097959
 C     0.892235     0.799027     2.348496
 O     2.842875    -0.530273     1.272898
 O     1.564201     1.173652    -0.251462
 C    -0.954925     0.706050    -2.396914
 O    -2.829699    -0.752221    -1.252986
 O    -1.691221     1.025875     0.263212
 P    -1.316970    -0.167696    -0.843652
 P     1.291221    -0.100077     0.809202
 C     0.521795    -2.194748    -1.635553
 O     0.926775    -2.569103    -2.651440
 H    -0.001328     1.391484     2.096290
 C     0.598331    -0.163823     3.488359
 H     1.482306    -0.770305     3.736332
 H    -0.218163    -0.849974     3.215672
 H     1.706206     1.495748     2.599394
 H     0.293218     0.378923     4.395187
 C     3.652365    -1.330716     0.514022
 C     3.658935    -1.265010    -0.876901
 H     3.003211    -0.555592    -1.384497
 C     4.498307    -2.212363     1.188718
 H     4.475041    -2.239686     2.279644
 C     4.488662    -2.110086    -1.623341
 C     4.439572    -2.060573    -3.122135
 H     4.653885    -1.046284    -3.494326
 H     5.166063    -2.750148    -3.573944
 H     3.434030    -2.333095    -3.479614
 C     5.339126    -3.037523     0.450744
 H     6.004370    -3.732133     0.969526
 C     5.330025    -2.995545    -0.944081
 H     5.985060    -3.659609    -1.513604
 C     2.230763     2.348571    -0.046935
 C     3.400654     2.437505     0.708192
 H     3.802450     1.539471     1.178811
 C     1.717163     3.482365    -0.684531
 H     0.812030     3.390398    -1.287076
 C     4.059096     3.665004     0.854674
 C     5.309796     3.742814     1.681850
 H     5.093641     3.550218     2.745186
 H     6.045291     2.988849     1.361591
 H     5.781172     4.732689     1.608986
 C     2.373628     4.699765    -0.544602
 H     1.975265     5.586428    -1.043950
 C     3.533745     4.795922     0.223319
 H     4.042149     5.757666     0.327038
 H    -0.624338    -0.111828    -3.058885
 C    -2.033323     1.539763    -3.071486
 H    -2.264205     2.455241    -2.511252
 H    -2.964345     0.966069    -3.182018
 H    -0.044924     1.284285    -2.169067
 H    -1.695306     1.836968    -4.075970
 C    -3.415010    -1.734395    -0.499995
 C    -3.625139    -1.560605     0.867826
 H    -3.311088    -0.627912     1.342216
 C    -3.795452    -2.916727    -1.133926
 H    -3.609663    -3.027810    -2.203268
 C    -4.209975    -2.577861     1.631911
 C    -4.393544    -2.391345     3.109981
 H    -4.918286    -1.449594     3.332727
 H    -4.968332    -3.216142     3.553194
 H    -3.419363    -2.346536     3.623958
 C    -4.389387    -3.923391    -0.380130
 H    -4.690924    -4.854343    -0.866151
 C    -4.592096    -3.759857     0.990902
 H    -5.052547    -4.562676     1.572120
 C    -2.473329     2.138292     0.091010
 C    -3.835975     2.034496    -0.183500
 H    -4.284093     1.047544    -0.305587
 C    -1.871958     3.386229     0.258005
 H    -0.806058     3.438698     0.485364
 C    -4.617169     3.186402    -0.328303
 C    -6.074926     3.066304    -0.666354
 H    -6.210334     2.805287    -1.728934
 H    -6.559742     2.274660    -0.075784
 H    -6.610834     4.008337    -0.484643
 C    -2.648811     4.532598     0.121924
 H    -2.186458     5.514374     0.249985
 C    -4.008030     4.436616    -0.173706
 H    -4.607626     5.344218    -0.279712
