  74
scf done:    -5480.386088
 C    -2.512076    -3.233442     0.187877
 H    -3.433534    -2.740911    -0.139551
 H    -2.536190    -4.298739    -0.067943
 C    -2.080729    -2.932586     1.580331
 H    -2.784903    -2.298372     2.138145
 H    -1.805548    -3.809725     2.181450
 H    -1.115957    -2.258452     1.617262
Co    -0.822577    -2.302581    -0.107241
 C     1.952287    -2.242270     1.796973
 O     2.209427    -2.293201    -0.926232
 O     1.588371    -0.102049     0.159549
 C    -0.760585    -0.078062    -2.540137
 O    -3.117918    -0.264635    -1.409079
 O    -1.285583     0.901917    -0.009389
 P    -1.524639    -0.495060    -0.926737
 P     1.156780    -1.719219     0.233837
 C    -0.399652    -3.547524    -1.211274
 O    -0.180128    -4.345715    -2.011899
 H     1.432513    -1.700358     2.604688
 C     1.851617    -3.748581     1.989381
 H     2.357588    -4.291233     1.176726
 H     0.802733    -4.078407     1.987438
 H     2.996364    -1.890702     1.809379
 H     2.309235    -4.052548     2.942161
 C     3.486182    -1.831732    -1.075480
 C     4.546195    -2.450781    -0.411965
 H     4.350723    -3.314950     0.224904
 C     3.730094    -0.746625    -1.919736
 H     2.890498    -0.280235    -2.436515
 C     5.844853    -1.973681    -0.572533
 H     6.680353    -2.449753    -0.057138
 C     5.024962    -0.268141    -2.086536
 H     5.225054     0.581505    -2.741083
 C     6.077773    -0.878539    -1.403130
Cl     7.689093    -0.275459    -1.596186
 C     2.068586     0.652151     1.195105
 C     3.439874     0.882926     1.310987
 H     4.123698     0.433951     0.588456
 C     1.174475     1.226591     2.100225
 H     0.105725     1.052354     1.961374
 C     3.920106     1.685458     2.342106
 H     4.989593     1.875539     2.444678
 C     1.653832     2.026055     3.133127
 H     0.967159     2.485985     3.845454
 C     3.025579     2.249930     3.251011
Cl     3.624003     3.244836     4.536139
 H    -0.612000    -1.064324    -3.008827
 C    -1.466680     0.870058    -3.496821
 H    -1.544212     1.889478    -3.097118
 H    -2.483312     0.517194    -3.716342
 H     0.249549     0.277190    -2.271821
 H    -0.909876     0.922268    -4.444882
 C    -4.187736    -0.422064    -0.587950
 C    -5.384059    -0.853069    -1.169182
 H    -5.399788    -1.060605    -2.240439
 C    -4.141764    -0.144831     0.783015
 H    -3.216289     0.215457     1.233955
 C    -6.520449    -1.025778    -0.389248
 H    -7.455042    -1.367330    -0.836976
 C    -5.279432    -0.327286     1.566591
 H    -5.251053    -0.118120     2.637295
 C    -6.463372    -0.768431     0.981481
Cl    -7.877170    -0.991648     1.958463
 C    -1.321207     2.181096    -0.489961
 C    -2.537427     2.849581    -0.640065
 H    -3.468486     2.338757    -0.389639
 C    -0.121537     2.825892    -0.796052
 H     0.817512     2.287947    -0.660935
 C    -2.555206     4.156810    -1.116700
 H    -3.499152     4.689059    -1.243842
 C    -0.136468     4.133157    -1.271912
 H     0.794177     4.647406    -1.516673
 C    -1.354912     4.791574    -1.435615
Cl    -1.377205     6.417970    -2.032634
