  88
scf done:    -3426.090559
 C    -1.762083    -0.781566     2.871926
 H    -1.513130    -0.788746     3.939247
 H    -2.675481    -0.205360     2.689756
 C    -1.675418    -2.108517     2.199773
 H    -1.317823    -2.930105     2.835842
 H    -2.591894    -2.420165     1.676722
 H    -0.905063    -2.103731     1.309027
Co    -0.297792    -0.494310     1.610252
 C    -2.220067     0.511921    -1.111795
 O    -2.499454     1.730323     1.275020
 O    -0.318832     2.174261    -0.074985
 C     2.536784     0.565482     0.209585
 O     2.278819    -2.091388     0.427083
 O     0.986739    -0.888769    -1.372804
 P     1.302062    -0.768497     0.254902
 P    -1.314722     0.949385     0.435128
 C     0.703187     0.051197     2.891145
 O     1.332368     0.512122     3.746445
 H    -2.755054     1.377587    -1.536708
 H    -1.452783     0.204761    -1.841621
 C    -3.189573    -0.632374    -0.853370
 H    -2.629587    -1.477045    -0.420158
 H    -3.917130    -0.333398    -0.079185
 C    -3.928332    -1.096939    -2.098983
 H    -3.193812    -1.355870    -2.884254
 H    -4.518278    -0.258559    -2.512596
 C    -4.841949    -2.288604    -1.850376
 H    -4.241551    -3.120472    -1.440692
 H    -5.566937    -2.028185    -1.058996
 C    -5.582681    -2.754313    -3.093133
 H    -6.231829    -3.617289    -2.881120
 H    -4.880239    -3.053795    -3.887724
 H    -6.218389    -1.952992    -3.503128
 C    -3.163275     2.916836     0.860589
 H    -2.797164     3.222750    -0.136262
 C    -2.827366     4.010024     1.856531
 H    -1.738278     4.146408     1.912365
 H    -3.185302     3.728249     2.858324
 H    -3.293183     4.965718     1.571380
 C    -4.650919     2.636342     0.765956
 H    -4.860186     1.865082     0.010192
 H    -5.027364     2.276412     1.735607
 H    -5.205736     3.546758     0.493010
 C    -0.365738     2.947579    -1.274053
 H    -1.366901     2.862722    -1.730515
 C     0.659058     2.426036    -2.265968
 H     0.554217     1.341877    -2.410233
 H     1.680730     2.616757    -1.903274
 H     0.544253     2.930694    -3.237292
 C    -0.121526     4.396107    -0.899917
 H    -0.899322     4.768204    -0.218604
 H     0.850540     4.493182    -0.393132
 H    -0.111075     5.032195    -1.797825
 H     1.959456     1.496566     0.099824
 H     2.954944     0.587683     1.230616
 C     3.629217     0.430379    -0.836006
 H     4.147181    -0.533838    -0.698341
 H     3.166105     0.387758    -1.835750
 C     4.637693     1.569237    -0.788023
 H     5.101481     1.608840     0.214379
 H     4.107469     2.532562    -0.905985
 C     5.726601     1.460661    -1.846056
 H     6.249568     0.495174    -1.726666
 H     5.255609     1.421499    -2.844524
 C     6.733360     2.598559    -1.798508
 H     7.506211     2.492679    -2.575022
 H     7.244884     2.638337    -0.823276
 H     6.241563     3.573217    -1.949347
 C     2.181696    -2.972993     1.544920
 H     1.189512    -2.826239     2.009435
 C     3.245974    -2.612032     2.561980
 H     3.087213    -1.593458     2.944723
 H     4.246112    -2.664799     2.104416
 H     3.216884    -3.302261     3.418628
 C     2.303842    -4.390485     1.026066
 H     1.510345    -4.609598     0.296533
 H     3.276109    -4.535705     0.530008
 H     2.224590    -5.113906     1.851162
 C     0.933139    -2.117044    -2.090228
 H     1.832119    -2.702068    -1.832397
 C     0.972947    -1.758646    -3.561210
 H     1.871070    -1.166763    -3.788550
 H     0.088329    -1.163534    -3.837959
 H     0.986371    -2.666968    -4.181836
 C    -0.296324    -2.928379    -1.721873
 H    -0.318684    -3.148697    -0.644647
 H    -1.217054    -2.383784    -1.977558
 H    -0.299958    -3.886524    -2.263163
