  76
scf done:    -3817.048382
 C    -0.453260    -2.601851    -2.005070
 H    -0.384365    -3.685832    -1.847589
 H    -1.369734    -2.373262    -2.567712
 C     0.786148    -1.976827    -2.554656
 H     1.643624    -2.655843    -2.655037
 H     0.641225    -1.423367    -3.495030
 H     1.188310    -1.129975    -1.859743
Co     0.087371    -1.444243    -0.531285
 C    -1.951947     0.531016    -2.474642
 C    -3.241875    -0.976661    -0.362559
 C    -1.836000     1.291856     0.405855
 C     1.427877     0.191004     2.327048
 C     3.254869    -0.963462     0.390287
 C     1.845716     1.421144    -0.271313
 P     1.574599    -0.217412     0.511548
 P    -1.640851    -0.131593    -0.746403
 C    -0.048907    -2.743917     0.571569
 O    -0.282234    -3.631684     1.280668
 H    -1.932384    -0.420414    -3.036695
 C    -3.292150     1.191723    -2.768109
 H    -3.345591     1.462854    -3.835341
 H    -4.133249     0.518115    -2.555451
 H    -3.449089     2.114621    -2.190279
 C    -0.759768     1.351986    -2.959931
 H     0.188180     0.848309    -2.730262
 H    -0.816506     1.500880    -4.049916
 H    -0.707911     2.348344    -2.497116
 C    -4.399857    -0.246253    -0.052529
 H    -4.363691     0.844714    -0.018429
 C    -3.317639    -2.373576    -0.355085
 H    -2.418147    -2.954998    -0.556380
 C    -5.601048    -0.885694     0.234785
 H    -6.504743    -0.324941     0.480446
 C    -4.513435    -3.029829    -0.072327
 H    -4.576538    -4.119369    -0.059313
 C    -5.642325    -2.275645     0.216068
 F    -6.788198    -2.893729     0.493498
 C    -1.922216     2.641384     0.048688
 H    -1.886112     2.939598    -0.997826
 C    -1.883361     0.967530     1.771949
 H    -1.824305    -0.082865     2.071978
 C    -2.046486     3.640154     1.015280
 H    -2.115066     4.694119     0.739428
 C    -2.006953     1.948574     2.748991
 H    -2.048044     1.698341     3.810764
 C    -2.083237     3.281689     2.355157
 F    -2.200128     4.228625     3.283161
 H     0.528241     0.826653     2.365125
 C     1.148578    -1.071860     3.131991
 H     1.079184    -0.822077     4.202480
 H     0.211650    -1.559354     2.834823
 H     1.958921    -1.809586     3.016679
 C     2.607011     0.963240     2.903063
 H     2.857863     1.859142     2.316875
 H     2.367301     1.291543     3.927134
 H     3.504878     0.329995     2.962052
 C     4.431837    -0.203655     0.473658
 H     4.375930     0.881450     0.578894
 C     3.363967    -2.349473     0.224702
 H     2.449458    -2.940448     0.133174
 C     5.681778    -0.809724     0.405750
 H     6.604181    -0.229109     0.464898
 C     4.608481    -2.971938     0.164084
 H     4.702788    -4.052056     0.038586
 C     5.752875    -2.191063     0.256095
 F     6.946643    -2.773415     0.190504
 C     2.536059     1.493684    -1.491198
 H     2.989078     0.592399    -1.912875
 C     1.277837     2.593889     0.238947
 H     0.723916     2.578712     1.178807
 C     2.663268     2.694435    -2.179874
 H     3.201282     2.757311    -3.127378
 C     1.393725     3.804995    -0.440591
 H     0.950670     4.721095    -0.046008
 C     2.084699     3.840198    -1.643633
 F     2.199005     4.993625    -2.297861
