  36
scf done:    -2496.795217
 C    -1.225331    -2.093466    -0.737842
 H    -1.050048    -3.106877    -0.357500
 H    -2.308549    -1.901180    -0.773939
 C    -0.496415    -1.763220    -2.000356
 H     0.168832    -2.553803    -2.373382
 H    -1.140885    -1.413584    -2.821892
 H     0.209926    -0.836653    -1.867001
Co    -0.000579    -0.705248    -0.136950
 C    -2.766506     1.020671    -1.246929
 C    -2.821163     0.054402     1.427679
 C    -1.395944     2.385973     0.802661
 C     2.180226     1.423042     1.401961
 C     3.283138    -0.291874    -0.569752
 C     1.781537     1.970805    -1.373363
 P     1.722071     0.586230    -0.163533
 P    -1.633224     0.669724     0.166652
 C     0.584195    -1.636132     1.170193
 O     0.910994    -2.205791     2.127384
 H    -2.211508     1.571129    -2.021637
 H    -3.107721     0.071344    -1.686198
 H    -3.647907     1.609970    -0.947821
 H    -3.182206    -0.938590     1.126577
 H    -2.285155    -0.062516     2.380860
 H    -3.677999     0.732874     1.567524
 H    -2.358775     2.900612     0.949187
 H    -0.871920     2.343150     1.768851
 H    -0.785106     2.977102     0.104906
 H     2.271688     0.661445     2.190123
 H     3.129741     1.972775     1.310501
 H     1.385168     2.122318     1.694585
 H     3.450257    -1.073011     0.185938
 H     3.173223    -0.787996    -1.545257
 H     4.151648     0.385050    -0.600554
 H     1.658342     1.562967    -2.387769
 H     0.950204     2.664991    -1.187156
 H     2.731306     2.526016    -1.322660
