 100
scf done:    -3734.558525
 C     1.664586     0.525694     3.043298
 H     1.565971     0.092521     4.046234
 H     2.721141     0.564841     2.747740
 C     0.902259     1.790487     2.833647
 H     0.255453     2.092200     3.668939
 H     1.516495     2.646619     2.515461
 H     0.160583     1.706205     1.931836
Co     0.371095    -0.021042     1.697844
 C     2.196111     0.916448    -1.159256
 C     3.434677    -1.036963     0.575986
 C     1.210098    -1.774817    -0.988670
 C    -2.210116    -1.439534    -0.046767
 C    -2.811584     0.984846     1.420983
 C    -1.326862     1.161757    -0.997235
 P    -1.449961     0.136846     0.520245
 P     1.780030    -0.384809     0.080224
 C    -0.100438    -1.406551     2.571861
 O    -0.316783    -2.430873     3.078711
 H     2.921515     0.553732    -1.906083
 H     1.260692     1.122353    -1.702693
 C     2.676444     2.196344    -0.492810
 H     1.901176     2.525035     0.219667
 H     3.577599     1.996355     0.114002
 C     2.961766     3.314565    -1.483426
 H     2.072276     3.462321    -2.121520
 H     3.771811     3.003692    -2.168325
 C     3.336409     4.632321    -0.820742
 H     2.530937     4.924637    -0.123148
 H     4.231028     4.481381    -0.191098
 C     3.587989     5.757685    -1.810784
 H     3.857241     6.696390    -1.303248
 H     2.693567     5.955634    -2.423719
 H     4.408495     5.505845    -2.501878
 C     3.508174    -1.829523     1.726631
 H     2.610187    -1.984107     2.328640
 C     4.600831    -0.815171    -0.164463
 H     4.568258    -0.202639    -1.068512
 C     4.720403    -2.400637     2.106169
 H     4.767506    -3.025846     3.001282
 C     5.829555    -1.364968     0.214335
 C     7.075779    -1.090382    -0.577459
 H     6.843240    -0.632045    -1.549189
 H     7.745756    -0.401645    -0.036654
 H     7.644774    -2.013934    -0.764504
 C     5.871927    -2.169050     1.359344
 H     6.821360    -2.614896     1.669773
 C     1.026551    -1.671243    -2.370730
 H     1.287867    -0.754985    -2.901018
 C     0.859788    -2.972802    -0.350732
 H     0.978985    -3.057049     0.731975
 C     0.476534    -2.738476    -3.083020
 H     0.321747    -2.645518    -4.161267
 C     0.317634    -4.051846    -1.050191
 C    -0.048788    -5.318383    -0.333074
 H     0.773352    -6.051692    -0.382841
 H    -0.255722    -5.126885     0.729617
 H    -0.936348    -5.791277    -0.778979
 C     0.118465    -3.914564    -2.431218
 H    -0.323071    -4.739271    -2.997762
 H    -1.487881    -1.875634    -0.755773
 H    -2.173055    -2.097170     0.836944
 C    -3.611070    -1.411801    -0.635262
 H    -4.330144    -1.081590     0.132597
 H    -3.674365    -0.665405    -1.445707
 C    -4.025305    -2.774011    -1.176350
 H    -3.951193    -3.524182    -0.368035
 H    -3.298469    -3.095745    -1.944988
 C    -5.429416    -2.797071    -1.762934
 H    -6.149569    -2.476471    -0.989417
 H    -5.498183    -2.040554    -2.564991
 C    -5.833218    -4.157925    -2.306814
 H    -6.851248    -4.144900    -2.724901
 H    -5.807592    -4.926396    -1.517439
 H    -5.149382    -4.487029    -3.105967
 C    -2.798794     0.963323     2.817643
 H    -1.963744     0.477442     3.329496
 C    -3.861219     1.630595     0.754128
 H    -3.863872     1.667543    -0.338622
 C    -3.834095     1.567336     3.530538
 H    -3.823104     1.550303     4.623178
 C    -4.902595     2.242404     1.455298
 C    -6.030828     2.919437     0.731837
 H    -6.198040     3.938665     1.113312
 H    -5.832570     2.988132    -0.346932
 H    -6.975101     2.366434     0.863976
 C    -4.873728     2.199706     2.856510
 H    -5.677747     2.677197     3.424238
 C    -1.365430     0.627656    -2.288770
 H    -1.563929    -0.433006    -2.445581
 C    -1.048107     2.526041    -0.837583
 H    -1.011320     2.948538     0.171877
 C    -1.115886     1.448973    -3.388578
 H    -1.135352     1.023922    -4.395244
 C    -0.808073     3.363465    -1.928638
 C    -0.543238     4.827149    -1.726616
 H    -1.487901     5.388173    -1.633245
 H     0.034841     5.008102    -0.808621
 H     0.012898     5.257973    -2.571530
 C    -0.836756     2.800933    -3.212469
 H    -0.636755     3.433588    -4.081564
