 104
scf done:    -3511.373935
 C    -0.540344    -3.003854    -1.905689
 H    -0.321441    -4.057937    -1.697673
 H    -1.594506    -2.897500    -2.188391
 C     0.426613    -2.337210    -2.831816
 H     1.244217    -2.980187    -3.186771
 H    -0.039421    -1.834271    -3.692505
 H     0.998418    -1.448078    -2.321758
Co     0.309883    -1.694370    -0.730734
 O    -1.133701     1.215595    -0.534935
 C    -2.670136    -0.483917    -1.995846
 C    -2.488039    -0.745158     0.845805
 O     1.405905     0.403737     1.526966
 C     3.408543    -0.959498     0.313671
 C     2.012097     1.249931    -0.906573
 P     1.718659    -0.284877     0.041640
 P    -1.422329    -0.433793    -0.629774
 C     0.715992    -2.916923     0.392951
 O     0.899453    -3.734637     1.196098
 C    -1.733288     2.161487     0.320983
 H    -2.726010     2.463971    -0.061830
 H    -1.887445     1.741507     1.328607
 C    -0.814573     3.360639     0.415378
 H     0.166664     3.001579     0.767239
 H    -0.652229     3.763169    -0.599393
 C    -1.326327     4.457807     1.335100
 H    -1.528616     4.033036     2.334515
 H    -2.297838     4.830476     0.965173
 C    -0.346571     5.613441     1.465059
 H     0.617332     5.269681     1.873997
 H    -0.139507     6.073695     0.485364
 H    -0.729377     6.402073     2.130114
 H    -2.095162    -0.518728    -2.937104
 H    -3.180893    -1.458701    -1.921274
 C    -3.681693     0.649629    -2.049279
 H    -4.242923     0.705776    -1.099804
 H    -3.141388     1.606192    -2.142914
 C    -4.670559     0.513622    -3.199270
 H    -5.212855    -0.444996    -3.105701
 H    -4.113877     0.448361    -4.151922
 C    -5.673305     1.656484    -3.277496
 H    -6.225043     1.718918    -2.322515
 H    -5.124969     2.611163    -3.366762
 C    -6.656922     1.520905    -4.428481
 H    -7.367669     2.360654    -4.458225
 H    -7.243313     0.591643    -4.345257
 H    -6.134804     1.492573    -5.398468
 H    -1.901858    -0.421850     1.721480
 H    -3.392309    -0.113867     0.815498
 C    -2.856893    -2.213964     1.000492
 H    -3.484480    -2.536966     0.151129
 H    -1.938140    -2.819052     0.938425
 C    -3.583676    -2.511868     2.303937
 H    -4.507198    -1.906850     2.365161
 H    -2.954166    -2.182680     3.151274
 C    -3.927855    -3.984431     2.477553
 H    -4.553664    -4.311545     1.628223
 H    -2.999665    -4.578333     2.409328
 C    -4.639378    -4.289568     3.785570
 H    -4.873342    -5.360708     3.881391
 H    -5.587702    -3.733570     3.865175
 H    -4.019984    -4.006522     4.652023
 C     1.035309    -0.430124     2.607750
 H     0.087706    -0.947676     2.373578
 H     1.791749    -1.219206     2.768432
 C     0.900774     0.413381     3.856210
 H     0.695108    -0.262131     4.704838
 H     1.875318     0.888624     4.064430
 C    -0.178596     1.481347     3.763374
 H    -1.154689     0.992678     3.591303
 H     0.016711     2.095404     2.870449
 C    -0.260007     2.369056     4.993505
 H    -0.480156     1.783645     5.900816
 H     0.691978     2.896468     5.166162
 H    -1.047076     3.132051     4.891531
 H     4.063634    -0.168224     0.713838
 H     3.308921    -1.729145     1.097584
 C     3.983578    -1.592543    -0.945468
 H     3.234939    -2.295328    -1.352083
 H     4.130360    -0.820326    -1.722105
 C     5.297548    -2.323995    -0.713597
 H     5.146048    -3.101612     0.056772
 H     6.040942    -1.623575    -0.290894
 C     5.863114    -2.964366    -1.973415
 H     5.110927    -3.655832    -2.392764
 H     6.010750    -2.183829    -2.741100
 C     7.168919    -3.706843    -1.740833
 H     7.551768    -4.158240    -2.668700
 H     7.041344    -4.516994    -1.004923
 H     7.948871    -3.031792    -1.352900
 H     2.444516     0.930497    -1.871017
 H     1.001976     1.626233    -1.129025
 C     2.859902     2.320903    -0.235392
 H     2.486160     2.478838     0.789486
 H     3.902267     1.974441    -0.124800
 C     2.843361     3.643624    -0.989265
 H     1.794942     3.958348    -1.136977
 H     3.257433     3.500671    -2.004128
 C     3.602023     4.756022    -0.279639
 H     3.193936     4.871073     0.740485
 H     4.655570     4.452416    -0.146187
 C     3.537950     6.089322    -1.006535
 H     4.095896     6.873060    -0.471985
 H     2.496393     6.434707    -1.110211
 H     3.960504     6.013085    -2.021426
