  96
scf done:    -3806.368521
 C    -0.302969    -3.536138     0.224067
 H     0.115067    -4.244063     0.950010
 H    -1.381263    -3.694394     0.107392
 C     0.465349    -3.414774    -1.045416
 H     1.352719    -4.059369    -1.123502
 H    -0.148444    -3.510589    -1.952881
 H     0.922761    -2.341128    -1.195835
Co     0.356671    -1.702394     0.331821
 O    -1.449120     0.080895    -1.699690
 C    -2.950703    -1.789200    -0.477153
 C    -2.126472     0.537438     0.919794
 O     2.183734     0.801259     1.391274
 C     3.466721    -0.794908    -0.410476
 C     1.606326     1.196507    -1.138143
 P     1.816814    -0.150904     0.072828
 P    -1.477064    -0.727991    -0.242615
 C     0.616129    -1.935533     2.000525
 O     0.663572    -2.089094     3.148842
 C    -2.418970     1.021759    -2.121203
 H    -2.500568     0.913598    -3.217050
 H    -3.413569     0.777460    -1.705547
 C    -2.023787     2.442574    -1.772207
 H    -1.937660     2.538731    -0.679010
 H    -1.017782     2.630724    -2.176441
 C    -3.003295     3.480272    -2.296537
 H    -4.010842     3.273265    -1.893135
 H    -3.093649     3.386037    -3.394108
 C    -2.594728     4.899950    -1.936535
 H    -2.535586     5.026187    -0.843615
 H    -1.600423     5.142049    -2.345741
 H    -3.307887     5.643942    -2.323153
 C    -3.348056    -2.176460    -1.758915
 H    -2.833327    -1.758146    -2.627328
 C    -3.602693    -2.360254     0.625206
 H    -3.289985    -2.091329     1.638238
 C    -4.388029    -3.089118    -1.935261
 H    -4.687557    -3.373909    -2.947964
 C    -4.638029    -3.268427     0.443068
 H    -5.135199    -3.698427     1.317509
 C    -5.053670    -3.648611    -0.841687
 C    -6.174990    -4.629220    -1.023483
 H    -5.958208    -5.581533    -0.513971
 H    -7.114998    -4.243302    -0.597223
 H    -6.352097    -4.847346    -2.085918
 C    -3.482064     0.879692     1.011527
 H    -4.228232     0.310207     0.452627
 C    -1.204261     1.273607     1.671994
 H    -0.144785     1.012272     1.632790
 C    -3.893088     1.946504     1.805247
 H    -4.955744     2.200941     1.854953
 C    -1.619739     2.341867     2.460284
 H    -0.877536     2.908326     3.030121
 C    -2.970046     2.702307     2.538471
 C    -3.417960     3.836180     3.412549
 H    -3.622875     3.482468     4.437016
 H    -2.646931     4.616773     3.486348
 H    -4.341993     4.297341     3.034936
 C     3.072982     0.332333     2.393213
 H     2.848752    -0.718397     2.646655
 H     4.105529     0.365551     2.004139
 C     2.938674     1.206769     3.619954
 H     3.757912     0.944401     4.312353
 H     3.112240     2.255891     3.320613
 C     1.598794     1.078890     4.329706
 H     1.461601     0.036069     4.660329
 H     0.792785     1.259103     3.602911
 C     1.449470     2.028282     5.506161
 H     2.224774     1.852253     6.269753
 H     1.539403     3.079961     5.186949
 H     0.470381     1.912142     5.995406
 C     3.781866    -2.121577    -0.103717
 H     3.020350    -2.741237     0.378918
 C     4.442037     0.009087    -1.014610
 H     4.211979     1.048587    -1.261670
 C     5.041980    -2.636607    -0.397930
 H     5.271803    -3.676179    -0.148084
 C     5.698111    -0.510840    -1.304693
 H     6.449486     0.129283    -1.776168
 C     6.020165    -1.842752    -1.005614
 C     7.369191    -2.400055    -1.352271
 H     8.171094    -1.680810    -1.127956
 H     7.576241    -3.329061    -0.802770
 H     7.432927    -2.630340    -2.428837
 C     1.735462     2.544389    -0.800000
 H     1.941409     2.815000     0.236797
 C     1.342329     0.852541    -2.468766
 H     1.209589    -0.197331    -2.742041
 C     1.610865     3.528665    -1.780533
 H     1.708036     4.581325    -1.500035
 C     1.241937     1.836475    -3.443293
 H     1.044663     1.549471    -4.479975
 C     1.367819     3.194637    -3.115988
 C     1.193039     4.254636    -4.163165
 H     1.650668     3.958842    -5.118928
 H     0.122543     4.436517    -4.358892
 H     1.636400     5.210417    -3.849769
