  92
scf done:    -3878.203196
 C    -0.453864     2.606277    -1.615189
 H    -1.249636     3.248921    -1.221639
 H     0.447676     3.177115    -1.869319
 C    -0.877389     1.603946    -2.613835
 H    -1.932796     1.677490    -2.909831
 H    -0.225799     1.524028    -3.495461
 H    -0.872279     0.478174    -2.208414
Co    -0.196340     0.903296    -0.658792
 C     1.455941    -1.452426    -2.502898
 O     3.077454     0.209583    -1.359047
 O     1.790316    -1.334564     0.269543
 C    -1.361016    -1.084622     1.904787
 O    -2.873719     0.924907     1.075395
 O    -2.712719    -1.131181    -0.537913
 P    -1.744660    -0.113380     0.376517
 P     1.520993    -0.318869    -1.035753
 C     0.257176     1.846564     0.676017
 O     0.547470     2.502942     1.581417
 H     1.028262    -0.774384    -3.266292
 C     2.780485    -1.981455    -3.034341
 H     2.596922    -2.615765    -3.916561
 H     3.451460    -1.164400    -3.326520
 H     3.309976    -2.589668    -2.288261
 C     0.434829    -2.549803    -2.235076
 H    -0.504101    -2.138451    -1.838456
 H     0.203050    -3.098488    -3.161000
 H     0.815186    -3.275504    -1.499653
 C     3.769231     1.248211    -0.798458
 C     3.179904     2.490031    -0.573384
 H     2.138316     2.631238    -0.854772
 C     5.125792     1.020202    -0.508221
 C     5.769079    -0.288909    -0.844964
 H     5.258168    -1.130229    -0.356344
 H     5.725603    -0.479620    -1.928955
 H     6.822805    -0.297136    -0.535338
 C     3.919771     3.514706     0.012768
 H     3.444136     4.479322     0.203244
 C     5.843176     2.067769     0.074988
 H     6.897440     1.905328     0.315814
 C     5.252775     3.301077     0.350605
 H     5.839968     4.096479     0.814834
 C     2.945403    -1.826289     0.808360
 C     3.462095    -3.045422     0.371793
 H     2.947006    -3.582298    -0.425704
 C     3.537089    -1.127003     1.874778
 C     2.925809     0.137870     2.388681
 H     2.984701     0.953060     1.651725
 H     1.858946    -0.004169     2.617324
 H     3.435104     0.477941     3.299954
 C     4.612649    -3.567988     0.958056
 H     5.016142    -4.520490     0.607136
 C     4.693519    -1.671306     2.441979
 H     5.172146    -1.134855     3.265619
 C     5.238267    -2.871844     1.989704
 H     6.144052    -3.269199     2.452863
 H    -0.441303    -0.570991     2.239206
 C    -2.381486    -1.039410     3.035270
 H    -1.955995    -1.533397     3.923558
 H    -2.647118    -0.009738     3.306079
 H    -3.304932    -1.572072     2.766984
 C    -0.980785    -2.513307     1.528135
 H    -0.243800    -2.537720     0.714745
 H    -0.527319    -3.014868     2.396735
 H    -1.868943    -3.092557     1.233756
 C    -3.312237     2.036177     0.410810
 C    -3.832738     1.942603    -0.880173
 H    -3.887751     0.964878    -1.362511
 C    -3.253994     3.263278     1.090092
 C    -2.724912     3.325782     2.489395
 H    -2.777867     4.349613     2.883526
 H    -3.300292     2.666626     3.158003
 H    -1.677303     2.993073     2.535278
 C    -4.272322     3.092279    -1.533887
 H    -4.674773     3.018864    -2.547005
 C    -3.706452     4.398044     0.411530
 H    -3.662300     5.364348     0.921304
 C    -4.202848     4.324948    -0.890068
 H    -4.543745     5.231081    -1.395546
 C    -3.838740    -1.837228    -0.192016
 C    -4.854274    -1.294944     0.598717
 H    -4.744701    -0.288959     0.998758
 C    -3.963601    -3.127220    -0.738929
 C    -2.890465    -3.688613    -1.617633
 H    -3.181162    -4.671543    -2.012124
 H    -2.680747    -3.019301    -2.465535
 H    -1.943453    -3.804107    -1.068621
 C    -5.992012    -2.048487     0.880351
 H    -6.777584    -1.616354     1.504549
 C    -5.117850    -3.856047    -0.440465
 H    -5.221480    -4.861191    -0.858457
 C    -6.127115    -3.334237     0.365856
 H    -7.017485    -3.928091     0.583251
