  82
scf done:    -4268.246574
 C    -2.431057    -1.621878    -2.447820
 H    -3.465837    -1.265772    -2.386582
 H    -2.146473    -1.826414    -3.485050
 C    -2.029455    -2.643322    -1.457381
 H    -2.852138    -3.031613    -0.839046
 H    -1.413251    -3.462766    -1.847093
 H    -1.369795    -2.175907    -0.579477
Co    -1.087995    -0.715337    -1.358199
 O     1.022774    -0.984736     1.198144
 O     1.752335    -1.886299    -0.983976
 O     1.635206     0.667296    -0.668017
 O    -2.694582     1.904261    -1.644050
 O    -4.056301     0.258036    -0.388775
 O    -2.404176     1.547210     0.846441
 P    -2.451877     0.688931    -0.610772
 P     0.774830    -0.706589    -0.389663
 C    -0.378300    -0.113185    -2.808373
 O     0.037415     0.346683    -3.777094
 C     0.044119    -0.675121     2.200687
 H    -0.792461    -0.151572     1.709597
 C     0.687482     0.237577     3.220443
 H     1.033766     1.165973     2.745485
 H     1.546191    -0.262847     3.694768
 H    -0.033954     0.508856     4.004351
 C    -0.460902    -1.978411     2.782991
 H    -0.931773    -2.596239     2.004233
 H     0.368726    -2.548550     3.228645
 H    -1.207132    -1.787285     3.568920
 C     3.024115    -2.228206    -0.581393
 C     3.252965    -2.857677     0.641010
 H     2.412261    -3.064293     1.301527
 C     4.081530    -1.971624    -1.453384
 H     3.872867    -1.490233    -2.409525
 C     4.553849    -3.190060     1.011553
 H     4.765520    -3.676005     1.965684
 C     5.381397    -2.301314    -1.086669
 H     6.227934    -2.094357    -1.743363
 C     5.602870    -2.899915     0.148491
 F     6.848071    -3.209710     0.508830
 C     2.977860     0.907763    -0.530783
 C     3.646654     1.419992    -1.641594
 H     3.081932     1.587654    -2.560770
 C     3.657131     0.684283     0.667426
 H     3.118953     0.285891     1.526309
 C     5.011297     1.683797    -1.569275
 H     5.561817     2.079095    -2.424755
 C     5.023663     0.936236     0.737496
 H     5.586124     0.752644     1.654351
 C     5.685729     1.427914    -0.381364
 F     6.995133     1.664570    -0.312016
 C    -3.686635     2.935676    -1.468552
 H    -4.087829     2.859878    -0.444537
 C    -4.798684     2.693632    -2.467074
 H    -5.257879     1.711165    -2.292468
 H    -4.402358     2.720244    -3.493539
 H    -5.576505     3.466219    -2.372268
 C    -2.992271     4.268840    -1.643949
 H    -2.197644     4.397552    -0.895398
 H    -2.540345     4.334380    -2.645467
 H    -3.712090     5.093152    -1.531122
 C    -4.405957    -0.891696     0.250983
 C    -5.404975    -1.683763    -0.320926
 H    -5.873038    -1.352230    -1.249521
 C    -3.798480    -1.290824     1.444197
 H    -3.050659    -0.645077     1.905100
 C    -5.784407    -2.877579     0.283705
 H    -6.561358    -3.511547    -0.147120
 C    -4.166459    -2.493043     2.045472
 H    -3.702508    -2.827410     2.975103
 C    -5.151875    -3.274849     1.457346
 F    -5.505857    -4.423734     2.032979
 C    -1.398735     2.370772     1.247048
 C    -1.491744     2.891691     2.541879
 H    -2.357187     2.625721     3.151606
 C    -0.308990     2.707332     0.439533
 H    -0.227675     2.316621    -0.574075
 C    -0.499344     3.732156     3.033413
 H    -0.556403     4.150904     4.039751
 C     0.697006     3.533743     0.938341
 H     1.564880     3.788324     0.327473
 C     0.591607     4.039423     2.226513
 F     1.549263     4.837211     2.700744
