  80
scf done:    -4117.839338
 C    -0.857969     1.373682    -2.344649
 H     0.068290     1.709829    -2.831647
 H    -1.563859     1.000744    -3.095379
 C    -1.424872     2.336747    -1.361732
 H    -0.893872     3.297991    -1.309551
 H    -2.507723     2.491653    -1.439358
 H    -1.274031     1.977140    -0.254133
Co    -0.741086     0.361224    -0.674470
 C    -0.414640     0.843542     2.833566
 O    -2.752147     0.543880     1.725914
 O    -1.209804    -1.504826     2.050320
 C     1.873726    -0.711624    -2.505428
 O     2.232649     1.572692    -1.288031
 O     2.209941    -0.559833     0.239074
 P     1.319558     0.180956    -0.980122
 P    -1.202433     0.019472     1.390225
 C    -1.684756    -0.915123    -1.361234
 O    -2.201583    -1.785039    -1.915031
 H    -0.277105     1.880389     2.476534
 C    -1.289568     0.853633     4.082187
 H    -0.747582     1.348967     4.903324
 H    -2.236943     1.381499     3.918390
 H    -1.520197    -0.173844     4.401120
 C     0.947933     0.218279     3.115617
 H     1.551787     0.089526     2.207670
 H     1.508901     0.842381     3.828368
 H     0.820302    -0.778008     3.563839
 C    -3.783607     0.646400     0.837442
 C    -4.336992     1.908678     0.619182
 H    -3.909030     2.768371     1.138218
 C    -4.320108    -0.470557     0.196620
 H    -3.888237    -1.456410     0.370686
 C    -5.415651     2.060900    -0.247471
 H    -5.865474     3.038060    -0.432033
 C    -5.391528    -0.323614    -0.679420
 H    -5.813161    -1.182641    -1.203676
 C    -5.926449     0.940665    -0.892919
 F    -6.953374     1.083206    -1.730439
 C    -1.291288    -2.667042     1.335399
 C    -2.456549    -3.429318     1.412905
 H    -3.279867    -3.077816     2.037565
 C    -0.206329    -3.105704     0.577770
 H     0.695274    -2.492361     0.543683
 C    -2.550786    -4.625820     0.707177
 H    -3.451020    -5.241479     0.745363
 C    -0.297954    -4.300419    -0.129518
 H     0.528904    -4.665499    -0.741087
 C    -1.470960    -5.042360    -0.061978
 F    -1.558680    -6.184016    -0.742953
 H     1.218115    -0.236759    -3.256564
 C     3.322503    -0.511898    -2.938576
 H     3.450450    -0.911231    -3.957577
 H     3.605576     0.548301    -2.946081
 H     4.023613    -1.049870    -2.285184
 C     1.499978    -2.187357    -2.428935
 H     0.441985    -2.339442    -2.178186
 H     1.685715    -2.667096    -3.402333
 H     2.114954    -2.713259    -1.682902
 C     1.923437     2.767093    -0.713405
 C     1.713264     2.889616     0.661799
 H     1.813783     2.013756     1.302503
 C     1.834678     3.892680    -1.535616
 H     2.008891     3.776793    -2.606830
 C     1.386435     4.128373     1.209958
 H     1.216192     4.247366     2.281716
 C     1.519990     5.134080    -0.990988
 H     1.444148     6.026676    -1.614493
 C     1.289063     5.235623     0.377023
 F     0.976964     6.421162     0.899442
 C     3.549011    -0.833278     0.299560
 C     4.506691     0.183433     0.275663
 H     4.192774     1.219845     0.157353
 C     3.943777    -2.161701     0.468482
 H     3.181585    -2.941435     0.516346
 C     5.857498    -0.135480     0.381512
 H     6.624874     0.640222     0.356849
 C     5.293368    -2.483197     0.580280
 H     5.623742    -3.515110     0.711027
 C     6.236954    -1.464355     0.527332
 F     7.530474    -1.766927     0.628617
