  84
scf done:    -4045.996860
 C    -0.360684    -3.537111    -0.069647
 H     0.059252    -4.308110     0.587374
 H    -1.442697    -3.672255    -0.180119
 C     0.388869    -3.317023    -1.336303
 H     1.267521    -3.961450    -1.482602
 H    -0.238878    -3.329752    -2.239053
 H     0.854171    -2.237366    -1.404753
Co     0.322760    -1.725753     0.181407
 O    -1.495405     0.197809    -1.699599
 C    -3.002909    -1.706790    -0.541261
 C    -2.109093     0.521007     0.959184
 O     2.203318     0.638177     1.439109
 C     3.441135    -0.808156    -0.514357
 C     1.611930     1.276920    -1.030435
 P     1.807740    -0.185272     0.045871
 P    -1.503383    -0.684643    -0.288015
 C     0.582717    -2.101107     1.824802
 O     0.630026    -2.348621     2.955763
 C    -2.459115     1.174260    -2.056296
 H    -2.574806     1.108610    -3.152130
 H    -3.446293     0.936498    -1.620578
 C    -2.010947     2.569119    -1.672438
 H    -1.931408     2.644318    -0.576396
 H    -0.993088     2.709940    -2.062357
 C    -2.918822     3.668266    -2.200948
 H    -3.922006     3.574068    -1.748259
 H    -3.064858     3.534719    -3.288111
 C    -2.357842     5.056458    -1.933717
 H    -2.213269     5.224359    -0.854377
 H    -1.377770     5.182664    -2.421409
 H    -3.024523     5.847327    -2.309259
 C    -3.630101    -2.328732     0.547598
 H    -3.281987    -2.124348     1.563940
 C    -3.441054    -2.010444    -1.834464
 H    -2.942239    -1.549684    -2.690229
 C    -4.688522    -3.209861     0.354706
 H    -5.188891    -3.697978     1.193021
 C    -4.500417    -2.891729    -2.043414
 H    -4.857617    -3.132588    -3.046380
 C    -5.112591    -3.477498    -0.943267
 F    -6.126217    -4.319140    -1.133661
 C    -3.457209     0.887449     1.084107
 H    -4.219771     0.377602     0.491321
 C    -1.162041     1.169232     1.761733
 H    -0.111774     0.876584     1.701821
 C    -3.848161     1.895820     1.959608
 H    -4.893588     2.191512     2.064533
 C    -1.536295     2.181532     2.639882
 H    -0.806033     2.693091     3.269577
 C    -2.877152     2.536854     2.721118
 F    -3.243917     3.504026     3.556866
 C     3.089507     0.064778     2.390396
 H     2.834683    -0.995184     2.562410
 H     4.117831     0.098473     1.990740
 C     2.997210     0.842233     3.683899
 H     3.807439     0.488660     4.345394
 H     3.215360     1.903974     3.471014
 C     1.656936     0.713869     4.392762
 H     1.468118    -0.347972     4.622254
 H     0.857271     1.005735     3.695468
 C     1.565006     1.550386     5.657513
 H     2.333956     1.258736     6.391240
 H     1.709718     2.621945     5.441993
 H     0.584171     1.438810     6.143939
 C     4.424081     0.033359    -1.052595
 H     4.210752     1.094795    -1.200318
 C     3.730613    -2.165353    -0.332207
 H     2.959279    -2.809916     0.099310
 C     5.670350    -0.471109    -1.407947
 H     6.448807     0.165548    -1.832413
 C     4.973156    -2.684491    -0.683890
 H     5.215905    -3.740098    -0.549440
 C     5.926278    -1.826253    -1.219184
 F     7.115489    -2.311077    -1.561469
 C     1.729938     2.582945    -0.547170
 H     1.921990     2.741362     0.514956
 C     1.365265     1.069887    -2.393048
 H     1.240476     0.054030    -2.776139
 C     1.609635     3.671310    -1.410050
 H     1.685586     4.699071    -1.050666
 C     1.268991     2.145091    -3.268414
 H     1.079884     2.003969    -4.333863
 C     1.387222     3.435185    -2.759499
 F     1.254717     4.472154    -3.586182
