  62
scf done:    -2961.425077
 C    -0.835948    -3.222760    -0.793634
 H    -0.354390    -4.149303    -0.458505
 H    -1.917954    -3.284691    -0.629163
 C    -0.436635    -2.772547    -2.160061
 H     0.302446    -3.412771    -2.661790
 H    -1.279053    -2.581952    -2.841589
 H     0.089012    -1.721516    -2.151970
Co     0.102028    -1.557739    -0.411402
 O    -1.911854     0.996423    -0.701519
 C    -3.258138    -1.219497     0.242969
 C    -1.423043     0.251813     1.905158
 O     1.567322     1.018235     0.676982
 C     3.193536    -0.314412    -1.169575
 C     0.986688     1.261113    -2.024472
 P     1.448981     0.081742    -0.689775
 P    -1.603442    -0.396156     0.184496
 C     0.998835    -2.307372     0.831802
 O     1.492956    -2.787003     1.766077
 C    -2.645752     2.147631    -0.308316
 H    -3.252467     1.923000     0.585656
 C    -3.578056     2.511746    -1.447709
 H    -4.261269     1.679261    -1.670963
 H    -2.996276     2.723814    -2.357914
 H    -4.177538     3.401348    -1.201553
 C    -1.679319     3.267266     0.036204
 H    -0.992852     2.952634     0.833826
 H    -1.076068     3.537272    -0.844812
 H    -2.219386     4.165782     0.372027
 H    -3.071532    -2.148575     0.806552
 C    -4.460434    -0.485659     0.815707
 H    -4.760014     0.367771     0.191226
 H    -4.271270    -0.109373     1.832999
 H    -3.457783    -1.542990    -0.792597
 H    -5.329902    -1.159299     0.876920
 H    -2.200455     1.003224     2.119871
 C    -1.435360    -0.839497     2.966285
 H    -0.662992    -1.596839     2.773330
 H    -2.407096    -1.355012     3.018219
 H    -0.450296     0.767564     1.898622
 H    -1.240408    -0.411135     3.961607
 C     2.614687     1.907211     1.049850
 H     3.211653     2.179822     0.161569
 C     3.513859     1.220979     2.061158
 H     3.983351     0.325872     1.630732
 H     2.922334     0.904457     2.933510
 H     4.311262     1.898081     2.402983
 C     1.975649     3.165651     1.603669
 H     1.336850     3.646290     0.849181
 H     1.349350     2.920100     2.475046
 H     2.743846     3.886699     1.920638
 H     3.836717     0.558703    -0.971958
 C     3.775547    -1.578965    -0.560575
 H     3.185925    -2.457375    -0.858145
 H     3.767653    -1.553401     0.538521
 H     3.154859    -0.412134    -2.268295
 H     4.815338    -1.727550    -0.890397
 H    -0.066508     1.502226    -1.815063
 C     1.818773     2.514004    -2.242005
 H     2.879192     2.291664    -2.438414
 H     1.769435     3.185142    -1.372145
 H     0.970259     0.635016    -2.934765
 H     1.441470     3.081858    -3.107013
