 108
scf done:    -4335.822608
 C    -0.444401    -1.060804    -2.660693
 H     0.067813    -1.842157    -3.232000
 H    -1.508223    -1.011656    -2.913095
 C     0.266174     0.224003    -2.560670
 H     1.284054     0.239290    -2.975656
 H    -0.308863     1.101466    -2.897958
 H     0.435578     0.573538    -1.426273
Co     0.020184    -0.894553    -0.775053
 C    -1.388127     0.966194     1.921471
 C    -2.272355     1.334885    -0.923776
 C    -3.269041    -0.814272     0.771818
 C     2.528526    -2.277462     1.157343
 C     3.417296    -0.635766    -0.921085
 C     2.137968     0.807506     1.270472
 P     1.964201    -0.737607     0.253206
 P    -1.691454     0.069033     0.299513
 C    -0.099030    -2.581713    -0.761136
 O    -0.164290    -3.739486    -0.850173
 H    -0.487303     1.558270     1.709268
 C    -2.491118     1.880968     2.427755
 H    -3.372771     1.301340     2.741007
 H    -2.131526     2.440240     3.308720
 H    -2.822853     2.601733     1.670490
 C    -1.033178    -0.078528     2.970996
 H    -0.226208    -0.738767     2.630358
 H    -0.699089     0.426788     3.891994
 H    -1.902212    -0.704083     3.228093
 C    -3.079621     0.920788    -2.008506
 O    -3.525670    -0.348773    -1.951746
 C    -4.349532    -0.855641    -2.957574
 H    -4.585883    -1.887793    -2.669751
 H    -5.290290    -0.283560    -3.046111
 H    -3.841111    -0.862807    -3.938250
 C    -1.793902     2.653513    -0.966689
 O    -0.956905     3.049614     0.026515
 C    -0.962980     4.393167     0.418029
 H    -0.463023     4.437176     1.394078
 H    -1.992409     4.778547     0.514262
 H    -0.408210     5.040675    -0.285513
 C    -2.136057     3.533860    -2.003491
 H    -1.753064     4.554574    -2.002721
 C    -3.418532     1.784924    -3.053003
 H    -4.048277     1.441366    -3.872806
 C    -2.946444     3.094410    -3.040254
 H    -3.207715     3.774254    -3.854396
 C    -4.542090    -0.204196     0.712221
 O    -4.574903     1.105546     0.402000
 C    -5.782584     1.736384     0.106040
 H    -5.525592     2.748088    -0.234975
 H    -6.330148     1.218004    -0.700798
 H    -6.441010     1.811810     0.990022
 C    -3.231531    -2.163082     1.181668
 O    -2.020576    -2.727284     1.342878
 C    -1.935641    -4.093358     1.642858
 H    -0.869962    -4.343497     1.650561
 H    -2.429986    -4.708450     0.872934
 H    -2.373345    -4.320081     2.630908
 C    -4.409192    -2.885857     1.434428
 H    -4.362845    -3.930680     1.735233
 C    -5.719946    -0.918689     0.961090
 H    -6.690563    -0.428710     0.895769
 C    -5.640224    -2.259979     1.311422
 H    -6.555139    -2.823688     1.509668
 H     2.539873    -2.924149     0.261408
 C     3.938251    -2.250399     1.728841
 H     4.223918    -3.262648     2.061300
 H     4.673835    -1.924505     0.980135
 H     4.003762    -1.575946     2.592544
 C     1.501703    -2.877570     2.107107
 H     1.580322    -2.450046     3.112894
 H     0.480423    -2.698000     1.746670
 H     1.657411    -3.965962     2.184632
 C     4.516773     0.238005    -0.790345
 O     4.644804     0.881307     0.384433
 C     5.571042     1.914764     0.530805
 H     5.390861     2.350816     1.522140
 H     6.612155     1.548821     0.481310
 H     5.434398     2.700389    -0.233274
 C     3.409702    -1.475250    -2.056893
 O     2.476015    -2.440702    -2.073714
 C     2.368491    -3.315065    -3.159744
 H     1.526412    -3.978591    -2.927017
 H     3.284887    -3.917426    -3.290120
 H     2.156021    -2.776234    -4.099337
 C     4.347094    -1.330348    -3.089193
 H     4.304405    -1.969214    -3.970189
 C     5.454741     0.398176    -1.819561
 H     6.280829     1.100109    -1.711679
 C     5.347718    -0.375252    -2.968481
 H     6.079201    -0.254652    -3.771217
 C     2.104510     2.035841     0.575631
 O     2.102381     1.940701    -0.767641
 C     2.055574     3.089186    -1.562173
 H     2.075969     2.744256    -2.603359
 H     1.127972     3.658770    -1.391881
 H     2.927522     3.743467    -1.386558
 C     2.171949     0.878077     2.672637
 O     2.219829    -0.292084     3.343535
 C     2.242141    -0.294799     4.740179
 H     2.275010    -1.348271     5.048374
 H     1.336907     0.170589     5.167023
 H     3.133737     0.220482     5.138440
 C     2.159316     2.107331     3.349004
 H     2.175288     2.139929     4.437121
 C     2.117378     3.266672     1.235086
 H     2.105864     4.197480     0.670206
 C     2.135388     3.291345     2.625003
 H     2.134275     4.248306     3.152483
