  70
scf done:    -3714.337206
 C    -0.468944    -2.336330    -1.883205
 H     0.567320    -2.674608    -1.986549
 H    -1.164636    -3.180894    -1.827674
 C    -0.877162    -1.243015    -2.806653
 H    -0.106993    -0.965739    -3.540959
 H    -1.845944    -1.394068    -3.300466
 H    -1.026041    -0.209919    -2.259310
Co    -0.791483    -0.858374    -0.650144
 O    -1.080421     2.310799    -0.191851
 O    -3.243803     1.191880    -0.503228
 O    -2.129003     0.923233     1.681993
 O     1.675641    -1.402079     1.193585
 O     2.291871    -1.154831    -1.302379
 O     1.971094     0.838145     0.250742
 P     1.219638    -0.612004    -0.137075
 P    -1.730805     0.858589     0.069067
 C    -1.677476    -1.948534     0.339580
 O    -2.181822    -2.727989     1.022131
 C    -1.725663     3.531078     0.125884
 H    -2.091581     3.524639     1.164851
 H    -0.976533     4.323050    -0.000625
 H    -2.573907     3.705685    -0.551931
 C    -4.138063     0.187607    -0.778038
 C    -4.474351    -0.061194    -2.107500
 H    -4.010748     0.541849    -2.890640
 C    -4.711213    -0.554124     0.253539
 H    -4.430205    -0.333157     1.284346
 C    -5.388602    -1.068967    -2.405600
 H    -5.653975    -1.266158    -3.447065
 C    -5.617686    -1.565126    -0.056234
 H    -6.058509    -2.155924     0.749924
 C    -5.958488    -1.826988    -1.382642
 H    -6.669368    -2.621412    -1.619795
 C    -1.195842     0.616429     2.642245
 C    -1.416066    -0.488949     3.461841
 H    -2.291440    -1.115400     3.285861
 C    -0.069626     1.420695     2.819370
 H     0.092292     2.272752     2.158078
 C    -0.507948    -0.779673     4.476412
 H    -0.679792    -1.647102     5.117880
 C     0.829915     1.121733     3.839681
 H     1.709152     1.754869     3.982407
 C     0.613792     0.025612     4.673223
 H     1.320750    -0.203737     5.473708
 C     2.790231    -1.157342     2.035849
 H     2.543538    -1.590253     3.013899
 H     3.695407    -1.636921     1.635452
 H     2.966428    -0.080281     2.152259
 C     3.616890    -1.417270    -1.088566
 C     4.559404    -0.389129    -1.134385
 H     4.230706     0.630833    -1.340371
 C     4.012639    -2.733334    -0.844133
 H     3.250790    -3.514525    -0.813145
 C     5.903575    -0.685320    -0.916689
 H     6.642417     0.119050    -0.950101
 C     5.358739    -3.017435    -0.628602
 H     5.668319    -4.047157    -0.434000
 C     6.307944    -1.994970    -0.659186
 H     7.362904    -2.220184    -0.488105
 C     1.904825     1.965495    -0.503242
 C     2.099936     3.181677     0.156556
 H     2.301037     3.167146     1.229471
 C     1.670616     1.945154    -1.881295
 H     1.550809     0.992945    -2.399562
 C     2.031859     4.375132    -0.554616
 H     2.186158     5.322424    -0.031712
 C     1.592393     3.148986    -2.579017
 H     1.398894     3.129001    -3.654348
 C     1.766586     4.366859    -1.925257
 H     1.708573     5.304723    -2.481639
