  84
scf done:    -5487.110163
 C     1.278266    -3.243483    -0.387087
 H     2.373244    -3.178793    -0.361862
 H     0.938093    -4.154298     0.119140
 C     0.635013    -2.982490    -1.703103
 H     1.339448    -2.849584    -2.538142
 H    -0.157352    -3.688501    -1.986850
 H     0.096717    -1.935638    -1.738042
Co     0.269340    -1.617140    -0.022871
 O    -1.583831     0.727969    -1.318692
 C    -2.818123    -1.647057    -0.917907
 C    -2.347776     0.172464     1.251692
 O     1.566404     0.911824     1.286350
 C     3.451208    -0.932863     0.697344
 C     2.451752     0.843348    -1.296721
 P     1.880375    -0.213672     0.097035
 P    -1.541126    -0.531071    -0.227553
 C    -0.147713    -2.251969     1.506636
 O    -0.349823    -2.661159     2.568464
 C    -2.731073     1.539933    -1.527165
 H    -2.804828     1.711284    -2.614702
 H    -3.647435     0.999206    -1.232131
 C    -2.639580     2.860526    -0.792198
 H    -2.465338     2.663494     0.277725
 H    -1.755998     3.411723    -1.154734
 C    -3.897518     3.701106    -0.956569
 H    -4.765295     3.121250    -0.594585
 H    -4.084852     3.883335    -2.029971
 C    -3.832112     5.026798    -0.216017
 H    -3.672693     4.869321     0.862816
 H    -3.002779     5.650585    -0.584990
 H    -4.761449     5.603694    -0.335062
 C    -3.121524    -1.627729    -2.282995
 H    -2.664677    -0.873401    -2.927627
 C    -3.387158    -2.643620    -0.112640
 H    -3.135666    -2.695333     0.950362
 C    -3.992819    -2.564107    -2.835212
 H    -4.231851    -2.548426    -3.899821
 C    -4.263213    -3.579173    -0.649774
 H    -4.711149    -4.351553    -0.022597
 C    -4.563622    -3.532663    -2.012768
Cl    -5.650787    -4.697476    -2.687938
 C    -3.736522     0.268476     1.407242
 H    -4.405991    -0.181352     0.670181
 C    -1.511101     0.729419     2.227717
 H    -0.425745     0.655509     2.110570
 C    -4.284628     0.933077     2.499723
 H    -5.365644     1.013843     2.623885
 C    -2.048786     1.397975     3.322574
 H    -1.401207     1.840341     4.081165
 C    -3.433713     1.503191     3.447175
Cl    -4.109049     2.345523     4.798705
 C     2.425595     1.994670     1.612395
 H     2.380326     2.095393     2.710482
 H     3.471405     1.751956     1.356123
 C     1.998447     3.293531     0.956002
 H     2.665228     4.089339     1.333622
 H     2.174762     3.236309    -0.130388
 C     0.545773     3.660975     1.214040
 H     0.359693     3.692522     2.302843
 H    -0.093322     2.853382     0.824051
 C     0.149025     4.984852     0.584390
 H     0.755897     5.816763     0.976932
 H     0.293165     4.962261    -0.508234
 H    -0.907459     5.223585     0.776256
 C     3.667189    -1.057033     2.075296
 H     2.949487    -0.618605     2.772708
 C     4.358380    -1.541664    -0.180114
 H     4.204107    -1.476762    -1.260693
 C     4.774436    -1.738906     2.568975
 H     4.944279    -1.828658     3.643135
 C     5.468593    -2.230993     0.299960
 H     6.176532    -2.700263    -0.385071
 C     5.673293    -2.321252     1.675808
Cl     7.054640    -3.171150     2.281685
 C     1.475047     1.237153    -2.221210
 H     0.449338     0.874261    -2.109438
 C     3.755383     1.337005    -1.445645
 H     4.537853     1.043731    -0.742129
 C     1.780826     2.117992    -3.254596
 H     1.016977     2.432527    -3.967739
 C     4.077309     2.210173    -2.480051
 H     5.091579     2.596325    -2.593930
 C     3.083084     2.600435    -3.377540
Cl     3.474011     3.692840    -4.661447
