  70
scf done:    -4111.092372
 C     0.422324     3.139862     0.569859
 H     1.329587     3.648231     0.226526
 H    -0.478643     3.756971     0.482802
 C     0.536890     2.317616     1.773161
 H     1.520942     2.332378     2.262032
 H    -0.279801     2.421898     2.499574
 H     0.495073     1.106511     1.548971
Co     0.205856     1.284910    -0.032268
 O    -1.416910    -1.289194     1.129131
 O    -2.797287     0.721126     0.978134
 O    -2.141594    -0.472929    -1.199608
 O     2.725062     0.812157    -1.921281
 O     3.245863     0.747368     0.598291
 O     2.272086    -1.249596    -0.674929
 P     2.037918     0.404237    -0.513949
 P    -1.452786     0.047998     0.220330
 C    -0.234881     1.948670    -1.550033
 O    -0.508047     2.414136    -2.564430
 C    -2.451371    -1.818293     1.942137
 H    -2.700687    -1.121200     2.754998
 H    -3.361181    -2.029882     1.362404
 H    -2.064733    -2.755617     2.362623
 C    -3.106538     2.040656     0.812751
 C    -3.280268     2.825882     1.953327
 H    -3.162897     2.361769     2.934422
 C    -3.254280     2.608362    -0.455623
 H    -3.115423     1.993794    -1.346427
 C    -3.598292     4.175603     1.833027
 H    -3.740876     4.808233     2.710878
 C    -3.558906     3.961485    -0.580865
 H    -3.664155     4.427543    -1.561982
 C    -3.727489     4.729679     0.564276
 F    -4.022438     6.023859     0.446111
 C    -3.146821    -1.404952    -1.236460
 C    -4.481126    -1.010010    -1.134602
 H    -4.722860     0.046997    -1.015624
 C    -2.817890    -2.752172    -1.385555
 H    -1.765831    -3.030788    -1.451839
 C    -5.490754    -1.968346    -1.174798
 H    -6.543026    -1.689168    -1.097875
 C    -3.823573    -3.713128    -1.424972
 H    -3.595527    -4.774536    -1.537661
 C    -5.149376    -3.308408    -1.316383
 F    -6.114755    -4.225909    -1.352115
 C     3.548673     0.006000    -2.746938
 H     4.484233    -0.273785    -2.240643
 H     3.019953    -0.907772    -3.053195
 H     3.783667     0.608843    -3.633926
 C     4.575519     0.534161     0.344927
 C     5.347991     1.583140    -0.155450
 H     4.870708     2.546100    -0.343755
 C     5.154136    -0.712560     0.589276
 H     4.539174    -1.525996     0.976726
 C     6.700396     1.387856    -0.419725
 H     7.326627     2.190694    -0.812832
 C     6.507094    -0.912037     0.326661
 H     6.985183    -1.876251     0.508200
 C     7.263209     0.139884    -0.177125
 F     8.557467    -0.051060    -0.430459
 C     1.657904    -2.134040     0.161987
 C     1.714947    -1.993400     1.551117
 H     2.259482    -1.154445     1.987735
 C     0.968582    -3.205965    -0.405643
 H     0.941769    -3.293791    -1.493339
 C     1.065353    -2.913914     2.368430
 H     1.082042    -2.818227     3.455490
 C     0.323396    -4.130933     0.408438
 H    -0.230075    -4.973603    -0.009934
 C     0.370714    -3.964339     1.786818
 F    -0.286339    -4.825079     2.570532
