  92
scf done:    -3878.219836
 C    -0.395394    -2.556107    -1.949150
 H    -0.452639    -3.613044    -1.666204
 H    -1.244338    -2.305971    -2.600752
 C     0.937979    -2.090557    -2.435113
 H     1.717844    -2.864293    -2.447612
 H     0.915823    -1.562719    -3.400016
 H     1.414112    -1.286333    -1.732488
Co     0.127257    -1.306938    -0.541583
 C    -1.596109     0.731562    -2.721779
 O    -2.977065    -0.823074    -1.118511
 O    -1.733900     1.183605     0.011645
 C     0.676019     0.958394     2.060452
 O     2.681146    -0.554467     1.234997
 O     1.879407     1.269439    -0.434345
 P     1.282640     0.072651     0.564886
 P    -1.477089    -0.076015    -1.065539
 C     0.040941    -2.538150     0.672904
 O    -0.098192    -3.346481     1.484797
 H    -1.307929    -0.114556    -3.374795
 C    -2.962350     1.233653    -3.171078
 H    -2.919900     1.513899    -4.236274
 H    -3.735900     0.464591    -3.045600
 H    -3.271020     2.124601    -2.605790
 C    -0.509208     1.797637    -2.823176
 H     0.455887     1.436280    -2.437923
 H    -0.374121     2.108473    -3.870660
 H    -0.788281     2.692264    -2.245595
 C    -3.277209    -1.858983    -0.276565
 C    -3.181479    -1.706444     1.104947
 H    -2.872864    -0.741441     1.511221
 C    -3.690090    -3.068964    -0.829775
 H    -3.759819    -3.162744    -1.914619
 C    -3.449729    -2.778064     1.961124
 C    -3.230447    -2.633775     3.437735
 H    -3.482725    -1.622382     3.788978
 H    -3.824956    -3.359212     4.011054
 H    -2.167950    -2.809930     3.675548
 C    -3.989691    -4.129693     0.020165
 H    -4.314049    -5.083813    -0.402369
 C    -3.861909    -3.991631     1.401384
 H    -4.078616    -4.840002     2.055394
 C    -2.714119     2.136036     0.036543
 C    -4.068782     1.804938     0.068088
 H    -4.364047     0.756815     0.021631
 C    -2.312862     3.472407     0.104479
 H    -1.247205     3.707661     0.104598
 C    -5.042552     2.807445     0.136022
 C    -6.497314     2.436560     0.129855
 H    -6.695783     1.584174     0.796651
 H    -7.130363     3.277030     0.447020
 H    -6.820841     2.137362    -0.880728
 C    -3.278799     4.470452     0.180988
 H    -2.969822     5.517129     0.235923
 C    -4.634095     4.144338     0.190886
 H    -5.385113     4.936087     0.249819
 H     0.013034     1.726741     1.627666
 C    -0.182881    -0.012230     2.866887
 H    -0.660733     0.518912     3.704361
 H    -0.966174    -0.461413     2.245209
 H     0.426100    -0.828850     3.285092
 C     1.743051     1.609387     2.934033
 H     2.287317     2.411807     2.421680
 H     1.257455     2.046965     3.820822
 H     2.474450     0.864454     3.278624
 C     3.361299    -1.560858     0.601304
 C     3.918194    -1.362359    -0.661223
 H     3.790156    -0.396407    -1.155200
 C     3.495100    -2.786044     1.253010
 H     3.032847    -2.920415     2.231905
 C     4.615740    -2.393695    -1.301495
 C     5.180911    -2.176288    -2.675315
 H     5.790480    -1.260583    -2.718007
 H     5.809775    -3.020044    -2.991379
 H     4.375053    -2.061459    -3.418813
 C     4.195361    -3.809715     0.624323
 H     4.302601    -4.775252     1.124215
 C     4.750147    -3.618761    -0.641733
 H     5.293481    -4.434073    -1.126052
 C     2.614317     2.374196    -0.097356
 C     3.936087     2.259200     0.329389
 H     4.376544     1.267186     0.440900
 C     2.018984     3.627884    -0.241425
 H     0.989410     3.685490    -0.597637
 C     4.679018     3.401720     0.647397
 C     6.090488     3.264499     1.139880
 H     6.113161     2.819941     2.148090
 H     6.680252     2.605558     0.484589
 H     6.596804     4.238300     1.191482
 C     2.756369     4.765997     0.068657
 H     2.299171     5.752495    -0.039403
 C     4.073414     4.655942     0.513571
 H     4.642660     5.556738     0.756274
