  96
scf done:    -4203.137845
 C    -0.992294    -2.112758    -2.433140
 H    -1.364927    -2.074490    -3.463564
 H    -0.069144    -2.710041    -2.408762
 C    -2.014285    -2.486173    -1.405237
 H    -3.010902    -2.714041    -1.809456
 H    -1.710464    -3.292995    -0.722422
 H    -2.244618    -1.619132    -0.658374
Co    -1.133053    -0.471033    -1.399558
 O     1.040115     0.123807     0.912248
 C     1.447511    -2.412016    -0.104791
 C     2.054082     0.030432    -1.694215
 O    -0.671270     2.343359    -0.085364
 C    -3.286957     2.041019    -0.646931
 C    -2.095364     0.730566     1.670771
 P    -1.769315     1.103975    -0.128489
 P     0.795266    -0.698780    -0.518688
 C    -1.267665     0.482657    -2.811362
 O    -1.214286     1.154280    -3.754407
 C     2.138866     0.004187     1.792075
 H     2.053330    -0.936475     2.371166
 H     3.089755    -0.035912     1.238280
 C     2.137621     1.186315     2.736327
 H     2.080121     2.103506     2.128675
 H     1.221977     1.158435     3.353622
 C     3.372019     1.234605     3.623836
 H     4.269935     1.275349     2.982677
 H     3.452289     0.295535     4.200189
 C     3.373419     2.420264     4.574599
 H     3.333972     3.371504     4.019892
 H     2.502419     2.395312     5.249099
 H     4.278755     2.438327     5.199458
 H     1.223530    -2.549326     0.963098
 H     0.772023    -3.093726    -0.643094
 C     2.868543    -2.775733    -0.406846
 C     3.237457    -3.167062    -1.702207
 H     2.474876    -3.224384    -2.484230
 C     3.866041    -2.751268     0.576083
 H     3.608397    -2.472113     1.599555
 C     4.553205    -3.496079    -2.017538
 H     4.841240    -3.801251    -3.025063
 C     5.186199    -3.080921     0.282244
 H     5.963515    -3.063008     1.048178
 C     5.516978    -3.443099    -1.017460
 F     6.778408    -3.756598    -1.308063
 H     2.392623    -0.791177    -2.341962
 H     1.449203     0.700282    -2.319901
 C     3.201093     0.781326    -1.098535
 C     2.976145     2.061349    -0.574645
 H     1.971557     2.485684    -0.640430
 C     4.488969     0.240725    -1.010084
 H     4.689194    -0.748512    -1.425985
 C     3.993356     2.770230     0.056255
 H     3.826584     3.764184     0.476743
 C     5.517672     0.935999    -0.378653
 H     6.522257     0.517316    -0.295730
 C     5.251918     2.189026     0.159454
 F     6.225819     2.851470     0.786234
 C    -0.719903     3.414227     0.833358
 H    -1.766192     3.682292     1.074410
 H    -0.233418     3.112064     1.777693
 C    -0.012768     4.611511     0.233783
 H    -0.032812     5.429517     0.975038
 H     1.051510     4.358567     0.086387
 C    -0.615208     5.073851    -1.085148
 H    -1.673386     5.348288    -0.922669
 H    -0.627197     4.220549    -1.782682
 C     0.131732     6.242378    -1.705597
 H     0.138016     7.119341    -1.038069
 H     1.181415     5.977582    -1.911250
 H    -0.323164     6.552138    -2.658249
 H    -3.375891     2.960575    -0.048759
 H    -3.085496     2.340086    -1.687838
 C    -4.539440     1.226405    -0.538476
 C    -4.723619     0.084673    -1.332335
 H    -3.948140    -0.190449    -2.051222
 C    -5.533299     1.555678     0.390332
 H    -5.414459     2.446342     1.013460
 C    -5.854201    -0.713038    -1.191656
 H    -6.002110    -1.606487    -1.801036
 C    -6.675304     0.769955     0.540462
 H    -7.454643     1.021897     1.261757
 C    -6.816391    -0.362715    -0.250995
 F    -7.898394    -1.126914    -0.108612
 H    -1.155064     0.988919     2.178309
 H    -2.890753     1.390216     2.050277
 C    -2.421692    -0.715280     1.904862
 C    -3.729297    -1.201369     1.794375
 H    -4.547761    -0.511326     1.584506
 C    -1.397155    -1.631419     2.174170
 H    -0.374767    -1.262126     2.260929
 C    -4.010685    -2.557948     1.936423
 H    -5.029287    -2.939227     1.845026
 C    -1.660006    -2.990125     2.322932
 H    -0.866313    -3.709016     2.535646
 C    -2.968623    -3.438943     2.194337
 F    -3.227265    -4.740046     2.323508
