 100
scf done:    -4107.022890
 C    -0.385876    -3.507253    -0.059056
 H     0.062956    -4.291924     0.562125
 H    -1.465790    -3.665945    -0.159891
 C     0.338751    -3.223863    -1.328974
 H     1.233778    -3.836989    -1.508533
 H    -0.301601    -3.227214    -2.223140
 H     0.771598    -2.130826    -1.367263
Co     0.255069    -1.689922     0.245715
 O    -1.731491     0.257411    -1.440308
 C    -3.105305    -1.752188    -0.302087
 C    -2.193040     0.416731     1.267652
 O     2.061719     0.752469     1.486850
 C     3.306571    -0.629873    -0.504214
 C     1.375391     1.387841    -0.948083
 P     1.666186    -0.076736     0.093532
 P    -1.627529    -0.696097    -0.074970
 C     0.599411    -2.116396     1.861698
 O     0.691693    -2.397242     2.982413
 C    -2.727847     1.232876    -1.678681
 H    -2.900974     1.236487    -2.769684
 H    -3.686462     0.946917    -1.208592
 C    -2.286717     2.611551    -1.229870
 H    -2.188703     2.630986    -0.133122
 H    -1.277640     2.784836    -1.629883
 C    -3.216438     3.725069    -1.685044
 H    -4.214262     3.588682    -1.230629
 H    -3.372248     3.651390    -2.777340
 C    -2.675996     5.105406    -1.343963
 H    -2.519110     5.210513    -0.258483
 H    -1.703545     5.277395    -1.833120
 H    -3.361653     5.905399    -1.663043
 C    -3.651481    -2.463050     0.779936
 H    -3.249718    -2.309839     1.785549
 C    -3.616722    -1.997114    -1.576069
 H    -3.186260    -1.472017    -2.432251
 C    -4.689234    -3.360673     0.593018
 H    -5.121381    -3.913945     1.429035
 C    -4.662929    -2.899631    -1.780852
 H    -5.039860    -3.058759    -2.791555
 C    -5.208287    -3.585474    -0.691704
 O    -6.218555    -4.474476    -0.777805
 C    -6.765397    -4.752254    -2.034977
 H    -6.014494    -5.174582    -2.726325
 H    -7.558394    -5.494427    -1.877480
 H    -7.206877    -3.852816    -2.500284
 C    -1.227807     1.071922     2.049511
 H    -0.169157     0.845798     1.909239
 C    -3.539051     0.719581     1.497355
 H    -4.317112     0.208255     0.925674
 C    -1.592639     2.016870     2.994268
 H    -0.843656     2.531930     3.598660
 C    -3.922384     1.665019     2.447244
 H    -4.982520     1.872477     2.594761
 C    -2.944415     2.328551     3.198351
 O    -3.208331     3.260610     4.133041
 C    -4.540090     3.615735     4.377500
 H    -5.135699     2.757386     4.735280
 H    -4.522382     4.385028     5.159882
 H    -5.025569     4.033170     3.477574
 C     2.824623     0.122831     2.503457
 H     2.265203     0.220924     3.448788
 H     2.921408    -0.958828     2.309652
 C     4.196998     0.753714     2.612057
 H     4.700557     0.667768     1.634642
 H     4.080105     1.833529     2.809508
 C     5.053983     0.110383     3.692202
 H     5.143201    -0.970769     3.484991
 H     4.539012     0.186352     4.666350
 C     6.440891     0.724063     3.795802
 H     6.988699     0.627891     2.844577
 H     6.385479     1.798233     4.035047
 H     7.043097     0.239167     4.579071
 C     4.239319     0.245108    -1.086253
 H     3.966560     1.288936    -1.260754
 C     3.679086    -1.959532    -0.297990
 H     2.949647    -2.639694     0.152587
 C     5.500675    -0.200506    -1.442168
 H     6.234605     0.467151    -1.897620
 C     4.947449    -2.422042    -0.647063
 H     5.204224    -3.466237    -0.467585
 C     5.868279    -1.538540    -1.221630
 O     7.114865    -1.878285    -1.595085
 C     7.545916    -3.196390    -1.397459
 H     6.930286    -3.918376    -1.962163
 H     8.578812    -3.247629    -1.764107
 H     7.531562    -3.476583    -0.329546
 C     1.527666     2.697923    -0.475479
 H     1.808426     2.856469     0.566616
 C     1.011407     1.193924    -2.281478
 H     0.856896     0.180171    -2.659448
 C     1.317624     3.781661    -1.316436
 H     1.415406     4.807584    -0.956581
 C     0.818531     2.271931    -3.141593
 H     0.529897     2.084240    -4.175736
 C     0.959667     3.578133    -2.655063
 O     0.742545     4.689545    -3.388674
 C     0.320033     4.549305    -4.715885
 H    -0.642760     4.012213    -4.783946
 H     0.189448     5.563662    -5.113594
 H     1.066996     4.018475    -5.332000
