  90
scf done:    -3727.808864
 C     0.872404    -3.209650    -0.188650
 H     0.544874    -3.988188    -0.888332
 H     1.962244    -3.228130    -0.072363
 C     0.093082    -3.139329     1.078850
 H    -0.720585    -3.873104     1.172641
 H     0.712135    -3.150258     1.988007
 H    -0.470016    -2.113053     1.212282
Co    -0.006393    -1.476913    -0.352646
 O     1.554168     0.537023     1.682591
 C     3.257685    -1.142211     0.388498
 C     2.142592     1.097263    -0.966079
 O    -1.918446     0.613848    -1.686973
 C    -3.274955    -1.061312     0.055362
 C    -1.845569     1.203791     0.953438
 P    -1.692750    -0.172720    -0.244540
 P     1.673849    -0.237015     0.207781
 C    -0.241509    -1.791633    -2.014822
 O    -0.305516    -1.976360    -3.155216
 C     2.232660     1.715556     2.108774
 H     2.283843     2.417816     1.257190
 C     3.642722     1.437098     2.601215
 H     4.268184     0.964415     1.832848
 H     3.623072     0.767432     3.474657
 H     4.123745     2.380203     2.903481
 C     1.373707     2.332178     3.192745
 H     0.366521     2.533519     2.810092
 H     1.285991     1.641831     4.046049
 H     1.815596     3.275075     3.549575
 C     3.580746    -1.716108     1.622604
 H     2.958419    -1.493062     2.492716
 C     4.046871    -1.466401    -0.721687
 H     3.793381    -1.060679    -1.704718
 C     4.681555    -2.559380     1.749967
 H     4.917554    -2.992873     2.726206
 C     5.145640    -2.309435    -0.588835
 H     5.749972    -2.545420    -1.469660
 C     5.488761    -2.867342     0.649556
 C     6.691490    -3.754138     0.788245
 H     6.788419    -4.437793    -0.068513
 H     7.618958    -3.158866     0.834061
 H     6.643246    -4.359118     1.704895
 C     3.404408     1.711158    -0.972346
 H     4.179422     1.371425    -0.282020
 C     1.190582     1.538283    -1.890718
 H     0.209565     1.061474    -1.930289
 C     3.691257     2.743251    -1.858530
 H     4.682043     3.206606    -1.840948
 C     1.482052     2.575381    -2.774278
 H     0.717193     2.900459    -3.485649
 C     2.733748     3.197563    -2.775757
 C     3.060500     4.291368    -3.749181
 H     2.150564     4.747219    -4.164463
 H     3.659933     5.084712    -3.277973
 H     3.649332     3.899799    -4.595477
 C    -3.131639     1.187626    -2.172970
 H    -3.748277     1.518981    -1.317099
 C    -3.891638     0.156524    -2.987347
 H    -4.195699    -0.697638    -2.368105
 H    -3.249281    -0.218615    -3.798440
 H    -4.796168     0.602103    -3.428337
 C    -2.746786     2.396697    -3.003849
 H    -2.207804     3.141697    -2.401566
 H    -2.094528     2.086885    -3.834815
 H    -3.642294     2.876881    -3.425229
 C    -3.323136    -2.422289    -0.266867
 H    -2.410240    -2.900644    -0.633058
 C    -4.443121    -0.444644     0.523895
 H    -4.431678     0.612535     0.799344
 C    -4.507345    -3.142361    -0.141785
 H    -4.522847    -4.203198    -0.406999
 C    -5.624501    -1.168628     0.645158
 H    -6.527516    -0.666778     1.004438
 C    -5.679693    -2.529358     0.314872
 C    -6.949727    -3.310534     0.478463
 H    -7.834756    -2.687563     0.283332
 H    -6.980691    -4.176637    -0.197829
 H    -7.042002    -3.694675     1.508278
 C    -1.613081     2.525906     0.566839
 H    -1.332237     2.742293    -0.465124
 C    -2.161560     0.945593     2.293024
 H    -2.330057    -0.082816     2.624428
 C    -1.742017     3.566538     1.484689
 H    -1.565274     4.595074     1.157652
 C    -2.290054     1.987359     3.204251
 H    -2.548907     1.764029     4.243075
 C    -2.091642     3.319273     2.815966
 C    -2.190663     4.435174     3.813173
 H    -2.962690     4.234327     4.570329
 H    -1.234444     4.562785     4.348464
 H    -2.424712     5.393172     3.327274
