  94
scf done:    -4028.632209
 C     0.866831    -1.931227    -2.725545
 H     0.590267    -1.812367    -3.779619
 H     1.929135    -2.175954    -2.624670
 C    -0.076449    -2.748789    -1.912124
 H    -0.925336    -3.172604    -2.467527
 H     0.406215    -3.527778    -1.304912
 H    -0.625660    -2.119347    -1.086689
Co     0.149541    -0.601925    -1.491580
 O     2.016823    -1.575131     1.055542
 O     3.255625    -1.029033    -0.989877
 O     2.304616     0.796984     0.539666
 O    -0.950238     1.718881     0.493900
 O    -2.761348     0.758246    -0.833328
 O    -1.703838    -0.694268     0.978817
 P    -1.266880     0.319788    -0.253543
 P     1.849530    -0.603754    -0.243623
 C     0.049887     0.523681    -2.785072
 O     0.091067     1.286564    -3.649296
 C     1.235164    -1.389716     2.244033
 H     0.542783    -0.545240     2.087305
 C     2.186124    -1.053186     3.372590
 H     2.753013    -0.145110     3.127494
 H     2.902016    -1.875228     3.524836
 H     1.634178    -0.887829     4.310238
 C     0.424614    -2.645782     2.476462
 H    -0.228177    -2.835441     1.613560
 H     1.089415    -3.511455     2.620217
 H    -0.210887    -2.537277     3.367924
 C     4.457770    -1.203979    -0.338718
 C     5.245456    -0.097977    -0.032287
 H     4.888527     0.899620    -0.292936
 C     4.874925    -2.511233    -0.049876
 C     4.006494    -3.679164    -0.402230
 H     4.506860    -4.628189    -0.166267
 H     3.058064    -3.631740     0.154454
 H     3.753826    -3.677051    -1.474077
 C     6.478517    -0.282719     0.589764
 H     7.097989     0.584141     0.830966
 C     6.117721    -2.666726     0.570369
 H     6.464694    -3.677380     0.802875
 C     6.914741    -1.569557     0.894661
 H     7.880928    -1.722961     1.380733
 C     2.383148     2.036077    -0.018952
 C     2.578219     2.236291    -1.385683
 H     2.663412     1.379329    -2.054899
 C     2.313296     3.118636     0.874012
 C     2.133217     2.855069     2.336152
 H     1.241512     2.233646     2.511213
 H     2.991821     2.299032     2.745006
 H     2.028763     3.792182     2.900089
 C     2.667865     3.534797    -1.885851
 H     2.802657     3.685220    -2.959081
 C     2.422129     4.406271     0.346256
 H     2.370716     5.258989     1.029282
 C     2.588976     4.623481    -1.022583
 H     2.662804     5.641860    -1.409897
 C    -1.604152     2.988187     0.259047
 H    -2.688843     2.802819     0.257074
 C    -1.173958     3.547768    -1.080129
 H    -1.474143     2.883920    -1.902420
 H    -0.081950     3.675280    -1.112583
 H    -1.645508     4.527557    -1.248377
 C    -1.249166     3.892358     1.417477
 H    -1.532284     3.441176     2.379125
 H    -0.171587     4.102995     1.427253
 H    -1.787744     4.846133     1.317173
 C    -3.674189    -0.091662    -1.404271
 C    -3.303947    -1.021047    -2.374753
 H    -2.260108    -1.061086    -2.689085
 C    -5.007535     0.040952    -0.984050
 C    -5.390116     1.088858     0.014043
 H    -4.826056     0.976610     0.951661
 H    -5.172185     2.096957    -0.373022
 H    -6.461749     1.034753     0.247369
 C    -4.263621    -1.876384    -2.913008
 H    -3.970526    -2.607558    -3.669958
 C    -5.946636    -0.829594    -1.543446
 H    -6.988733    -0.747920    -1.222806
 C    -5.587212    -1.788449    -2.490269
 H    -6.344910    -2.456831    -2.904967
 C    -2.743539    -0.549702     1.863383
 C    -2.793993     0.536608     2.734575
 H    -1.999156     1.280547     2.692785
 C    -3.711977    -1.565409     1.891155
 C    -3.606833    -2.745338     0.975743
 H    -3.722175    -2.447866    -0.077938
 H    -2.621114    -3.226777     1.066515
 H    -4.381078    -3.489095     1.206109
 C    -3.851808     0.648971     3.634627
 H    -3.896312     1.503311     4.313967
 C    -4.758817    -1.426177     2.807142
 H    -5.527629    -2.202648     2.843194
 C    -4.841206    -0.330821     3.666102
 H    -5.674390    -0.250050     4.367606
