  96
scf done:    -3806.325863
 C     1.326444    -0.719416    -3.119222
 H     0.946252    -0.424590    -4.104987
 H     2.419579    -0.644518    -3.084755
 C     0.767296    -1.987454    -2.584356
 H     0.025404    -2.485400    -3.225063
 H     1.529342    -2.708478    -2.252825
 H     0.183188    -1.833082    -1.570051
Co     0.294055    -0.088938    -1.582467
 O     1.639245    -1.116516     1.152057
 C     3.517925    -0.600262    -0.741675
 C     2.262661     1.533073     0.793382
 O    -1.984016     1.369678     0.279126
 C    -3.053920    -0.382224    -1.491144
 C    -1.833271    -1.158834     0.994701
 P    -1.554785    -0.068482    -0.454482
 P     1.895541    -0.044590    -0.094056
 C    -0.018531     1.325429    -2.476331
 O    -0.116429     2.305252    -3.088574
 C     2.221493    -1.101417     2.439520
 H     3.112270    -1.758542     2.450548
 H     2.549328    -0.084434     2.706692
 C     1.183974    -1.577560     3.431782
 H     1.620763    -1.549267     4.445331
 H     0.364473    -0.844173     3.416891
 C     0.659912    -2.970087     3.111538
 H     1.468474    -3.698035     3.299281
 H     0.444217    -3.023672     2.032542
 C    -0.581825    -3.391641     3.889128
 H    -0.494827    -3.082162     4.946780
 H    -1.714623    -0.969408     4.343056
 H    -0.629513    -4.493868     3.904449
 C     3.937704    -1.903846    -0.450584
 H     3.334111    -2.512119     0.227205
 C     4.253903     0.183774    -1.657444
 C     3.821797     1.569076    -2.040086
 H     4.022354     2.295530    -1.236283
 H     2.738858     1.607036    -2.234469
 H     4.348595     1.909081    -2.942398
 C     5.101411    -2.426122    -1.009119
 H     5.418503    -3.442162    -0.761950
 C     5.419270    -0.361467    -2.208060
 H     5.996790     0.241285    -2.914755
 C     5.850875    -1.646327    -1.886551
 H     6.765612    -2.042173    -2.334269
 C     1.164676     2.403094     0.833502
 H     0.245307     2.084639     0.341437
 C     3.468400     1.914447     1.433789
 C     4.726961     1.092161     1.467722
 H     5.295238     1.187337     0.529518
 H     4.540777     0.020578     1.599989
 H     5.376584     1.434060     2.285769
 C     1.221347     3.633022     1.479093
 H     0.344747     4.283851     1.493862
 C     3.503260     3.162727     2.072012
 H     4.429367     3.466180     2.568099
 C     2.405824     4.017679     2.098277
 H     2.478955     4.981669     2.607801
 C    -2.251214     2.515321    -0.517703
 H    -1.312932     3.072342    -0.686939
 H    -2.634282     2.215609    -1.507501
 C    -3.269663     3.384602     0.187847
 H    -3.484404     4.248594    -0.465073
 H    -4.215576     2.822925     0.275901
 C    -2.828373     3.868601     1.561325
 H    -1.911469     4.474058     1.451324
 H    -2.541858     2.996028     2.171190
 C    -3.894091     4.678158     2.280955
 H    -4.181198     5.570540     1.701490
 H    -4.807716     4.082181     2.437706
 H    -3.547666     5.019908     3.268097
 C    -2.814119    -0.596885    -2.852973
 H    -1.776327    -0.550897    -3.195805
 C    -4.381431    -0.408958    -1.002858
 C    -4.743197    -0.224170     0.443303
 H    -4.129567     0.546580     0.923563
 H    -4.581040    -1.157681     1.006877
 H    -5.804442     0.045151     0.540815
 C    -3.850548    -0.852372    -3.745685
 H    -3.635758    -1.018884    -4.803661
 C    -5.410096    -0.653966    -1.920736
 H    -6.441473    -0.669341    -1.557135
 C    -5.158467    -0.879944    -3.272320
 H    -5.990388    -1.070944    -3.954894
 C    -1.822351    -0.609450     2.224490
 H    -1.649721     0.464396     2.331226
 C    -2.090138    -2.612215     0.841135
 C    -2.285009    -3.230628    -0.513637
 H    -1.517793    -2.905279    -1.230491
 H    -3.254409    -2.954480    -0.955258
 H    -2.240376    -4.326218    -0.443132
 C    -2.195220    -1.388916     3.444502
 H    -3.281005    -1.219796     3.593301
 C    -2.156380    -3.385139     1.944203
 H    -2.308985    -4.462570     1.815193
 C    -1.940647    -2.898110     3.347010
 H    -2.692806    -3.389820     3.987174
