  78
scf done:    -3967.429337
 C    -0.780365    -0.673648     2.841199
 H    -1.102060    -1.480184     3.510525
 H     0.113734    -0.180022     3.244644
 C    -1.853579     0.270799     2.414951
 H    -2.850763     0.056270     2.823836
 H    -1.604995     1.330155     2.563332
 H    -2.045830     0.251260     1.262283
Co    -0.887039    -1.023483     0.923112
 O     1.282957     1.272073     1.412903
 C     2.264960    -1.353149     1.577595
 C     1.862984     0.071126    -0.993928
 O    -0.378216    -1.767667    -2.094748
 C    -2.997153    -2.196776    -1.472941
 C    -1.990889     0.467039    -1.992022
 P    -1.536576    -1.114137    -1.096883
 P     1.074547    -0.210367     0.681986
 C    -0.993490    -2.714589     1.183549
 O    -0.912862    -3.856822     1.359444
 C     2.454270     1.727651     2.042573
 H     2.594141     1.240080     3.023775
 H     3.355811     1.572334     1.430007
 H     2.337588     2.807706     2.213360
 H     2.239742    -1.024905     2.627728
 H     1.720240    -2.307350     1.559114
 C     3.668098    -1.571720     1.105640
 C     3.923001    -2.508552     0.093391
 H     3.090106    -3.072552    -0.335806
 C     4.761894    -0.899013     1.664219
 H     4.599064    -0.182406     2.471562
 C     5.214370    -2.747320    -0.369961
 H     5.415857    -3.477394    -1.155914
 C     6.060570    -1.125831     1.217512
 H     6.914046    -0.601807     1.651305
 C     6.271103    -2.044243     0.196697
 F     7.510642    -2.264356    -0.239315
 H     2.204103    -0.913889    -1.344678
 H     1.019365     0.336782    -1.645611
 C     2.937583     1.110158    -1.102526
 C     2.604014     2.472386    -1.119649
 H     1.555329     2.773359    -1.077429
 C     4.292227     0.767378    -1.188794
 H     4.581432    -0.284190    -1.202960
 C     3.581830     3.460112    -1.181491
 H     3.324268     4.520729    -1.191602
 C     5.285192     1.741536    -1.251676
 H     6.341234     1.472569    -1.313384
 C     4.917580     3.080384    -1.236442
 F     5.861632     4.020118    -1.289323
 C    -0.565171    -2.010503    -3.465901
 H    -1.165101    -2.919119    -3.644044
 H    -1.046602    -1.163565    -3.985728
 H     0.427648    -2.163472    -3.912930
 H    -3.074790    -2.351331    -2.559777
 H    -2.766563    -3.169377    -1.009178
 C    -4.278483    -1.621782    -0.946317
 C    -4.476079    -1.445205     0.430820
 H    -3.689454    -1.756088     1.122153
 C    -5.290211    -1.207191    -1.820094
 H    -5.162528    -1.345763    -2.897289
 C    -5.636822    -0.855729     0.919875
 H    -5.794614    -0.707594     1.989688
 C    -6.463100    -0.621255    -1.346127
 H    -7.257161    -0.298549    -2.021773
 C    -6.616418    -0.444959     0.022991
 F    -7.727453     0.125554     0.486050
 H    -1.088422     0.751144    -2.556959
 H    -2.791024     0.271910    -2.721934
 C    -2.377996     1.568208    -1.050465
 C    -3.716375     1.831270    -0.740859
 H    -4.506990     1.252298    -1.221837
 C    -1.389192     2.314758    -0.398165
 H    -0.336496     2.110747    -0.593346
 C    -4.062843     2.811252     0.186489
 H    -5.105819     3.015811     0.434648
 C    -1.715230     3.299637     0.527851
 H    -0.941990     3.870818     1.043996
 C    -3.054942     3.535412     0.810177
 F    -3.378720     4.469867     1.703683
