  82
scf done:    -5709.366544
 C    -0.028116    -3.857334    -1.396610
 H    -0.478776    -4.570906    -2.095442
 H     1.060170    -3.826109    -1.508549
 C    -0.544148    -3.924809    -0.001659
 H    -1.322550    -4.680038     0.169721
 H     0.233684    -4.002774     0.771050
 H    -1.077270    -2.935584     0.339292
Co    -0.915923    -2.127716    -1.204341
 O     1.024809     0.306875    -2.060165
 O     1.289511    -0.303641     0.338310
 O     2.260537    -1.830576    -1.450726
 O    -3.545683    -0.242820    -1.429132
 O    -2.977478    -0.755132     0.909548
 O    -1.559308     0.874866    -0.471564
 P    -2.231025    -0.633160    -0.573289
 P     0.860310    -1.003871    -1.104075
 C    -1.716022    -2.432444    -2.696352
 O    -2.180015    -2.619928    -3.735101
 C     0.243553     0.488409    -3.248412
 H    -0.774535     0.115963    -3.043528
 C     0.841084    -0.313617    -4.386001
 H     0.876461    -1.382860    -4.130242
 H     1.865722     0.024252    -4.606127
 H     0.233927    -0.201653    -5.296377
 C     0.186744     1.976340    -3.510531
 H    -0.274695     2.500980    -2.661993
 H     1.198078     2.383570    -3.662175
 H    -0.409153     2.181593    -4.412021
 C     1.983738     0.848352     0.610553
 C     1.488003     2.096234     0.234029
 H     0.555075     2.151653    -0.322889
 C     3.165354     0.751963     1.343791
 H     3.535724    -0.233821     1.628135
 C     2.195940     3.247444     0.565647
 H     1.821318     4.229773     0.273611
 C     3.875867     1.900300     1.675408
 H     4.813820     1.832098     2.228493
 C     3.390180     3.145294     1.277833
Cl     4.277479     4.580447     1.676580
 C     3.524265    -1.397675    -1.159670
 C     4.292091    -2.165074    -0.283425
 H     3.863002    -3.079635     0.130065
 C     4.050701    -0.230004    -1.715489
 H     3.438021     0.362765    -2.393592
 C     5.573107    -1.751560     0.068472
 H     6.179001    -2.338361     0.760736
 C     5.327391     0.190779    -1.358779
 H     5.739271     1.115521    -1.765293
 C     6.078893    -0.564210    -0.459941
Cl     7.653933    -0.017846     0.013466
 C    -4.877863    -0.737747    -1.207461
 H    -5.128926    -0.537392    -0.153330
 C    -4.954904    -2.228140    -1.471622
 H    -4.273125    -2.784587    -0.810888
 H    -4.680355    -2.454842    -2.512365
 H    -5.977787    -2.590166    -1.290329
 C    -5.779333     0.078552    -2.105502
 H    -5.681795     1.149375    -1.876930
 H    -5.514669    -0.081540    -3.161687
 H    -6.829122    -0.215077    -1.959861
 C    -2.404561    -1.353226     1.995192
 C    -3.191923    -2.218624     2.754524
 H    -4.227780    -2.391425     2.457090
 C    -1.074842    -1.116690     2.348028
 H    -0.446539    -0.461734     1.742173
 C    -2.653370    -2.848542     3.871656
 H    -3.259505    -3.526208     4.474812
 C    -0.531201    -1.756603     3.458444
 H     0.510309    -1.584456     3.734332
 C    -1.321223    -2.618204     4.217116
Cl    -0.644362    -3.413833     5.598684
 C    -2.248544     2.003329    -0.100978
 C    -2.175108     2.444291     1.218621
 H    -1.604606     1.865861     1.947089
 C    -2.963048     2.727897    -1.053851
 H    -3.008926     2.357855    -2.078491
 C    -2.820769     3.619429     1.591222
 H    -2.769927     3.979750     2.619665
 C    -3.610466     3.902789    -0.684006
 H    -4.172568     4.483690    -1.416861
 C    -3.536971     4.342270     0.637839
Cl    -4.341537     5.805121     1.098476
