  88
scf done:    -4346.813071
 C     1.627808     1.526071    -2.641734
 H     1.152565     1.981237    -3.517694
 H     2.396730     2.194698    -2.237342
 C     2.039694     0.101398    -2.805823
 H     1.783201    -0.340516    -3.777469
 H     3.093962    -0.091390    -2.560076
 H     1.514663    -0.611798    -2.036045
Co     0.445039     0.614893    -1.384580
 O     1.197204     0.841612     1.710755
 O     2.902439     2.079582     0.280802
 O     0.786187     3.087521     0.604110
 O    -2.117467    -0.328471     0.205598
 O    -1.186967    -2.006363    -1.521639
 O    -0.247577    -1.769407     0.839187
 P    -0.731314    -0.827793    -0.443080
 P     1.317903     1.553723     0.246486
 C    -0.922324     1.310593    -2.187616
 O    -1.810044     1.834084    -2.698949
 C     1.569896     1.472924     2.934264
 H     2.063420     0.691891     3.536169
 H     2.309020     2.265404     2.738888
 C     0.355066     2.021553     3.654492
 H     0.687268     2.437453     4.621697
 H    -0.045032     2.870081     3.075707
 C    -0.736805     0.983612     3.871503
 H    -0.350383     0.173467     4.516351
 H    -0.958640     0.508536     2.902067
 C    -2.005964     1.563452     4.472747
 H    -1.815257     2.017231     5.458397
 H    -2.424832     2.351859     3.826469
 H    -2.781835     0.794078     4.605348
 C     3.940279     1.288412    -0.117282
 C     4.061145    -0.047440     0.273026
 H     3.304113    -0.500289     0.915131
 C     4.917689     1.872888    -0.927076
 H     4.801822     2.919420    -1.214358
 C     5.159654    -0.794979    -0.151458
 H     5.288017    -1.834291     0.152510
 C     6.013327     1.129339    -1.351274
 H     6.788528     1.566477    -1.983054
 C     6.119208    -0.200961    -0.959348
 F     7.169000    -0.917888    -1.362911
 C    -0.423759     3.547261     0.163117
 C    -0.445583     4.640198    -0.701711
 H     0.502050     5.081703    -1.014060
 C    -1.616532     2.949014     0.570693
 H    -1.590932     2.074173     1.219915
 C    -1.660202     5.142251    -1.159124
 H    -1.705078     5.993309    -1.840754
 C    -2.832626     3.442548     0.109500
 H    -3.778693     2.981892     0.396215
 C    -2.840352     4.533695    -0.749185
 F    -4.005893     5.005325    -1.192556
 C    -2.901945    -0.955290     1.226729
 H    -3.249900    -1.938574     0.874660
 H    -2.271618    -1.116097     2.113694
 C    -4.072689    -0.052550     1.535267
 H    -4.646746    -0.523150     2.352629
 H    -3.695078     0.902810     1.939106
 C    -4.978198     0.207908     0.339565
 H    -5.338663    -0.758627    -0.054032
 H    -4.375201     0.656500    -0.467125
 C    -6.160142     1.103580     0.670410
 H    -6.800067     0.655846     1.447735
 H    -5.829946     2.084973     1.048740
 H    -6.788075     1.287901    -0.213903
 C    -2.225089    -2.878209    -1.309646
 C    -3.475360    -2.577179    -1.849547
 H    -3.596779    -1.653055    -2.417144
 C    -2.030956    -4.049312    -0.576862
 H    -1.045190    -4.272444    -0.165864
 C    -4.546143    -3.441399    -1.641093
 H    -5.536747    -3.230125    -2.047707
 C    -3.100392    -4.916328    -0.366639
 H    -2.980843    -5.838891     0.204080
 C    -4.345659    -4.599253    -0.897184
 F    -5.369194    -5.426345    -0.692911
 C     0.988327    -2.336489     0.927196
 C     1.608497    -2.939897    -0.170113
 H     1.104517    -2.961116    -1.137915
 C     1.616401    -2.327071     2.173701
 H     1.110776    -1.842362     3.009540
 C     2.866776    -3.519381    -0.021253
 H     3.377676    -3.986363    -0.864913
 C     2.869186    -2.911485     2.326143
 H     3.386620    -2.909154     3.287027
 C     3.480768    -3.496151     1.222368
 F     4.701367    -4.021332     1.355105
