 108
scf done:    -3963.498090
 C    -0.984381    -4.473831    -0.822013
 H    -0.725002    -5.419588    -0.331147
 H    -2.060332    -4.452673    -1.035032
 C    -0.116014    -4.117166    -1.983145
 H     0.691060    -4.831652    -2.198754
 H    -0.663942    -3.892636    -2.910319
 H     0.459641    -3.107301    -1.816779
Co    -0.084347    -2.872378    -0.171828
 O    -1.558328    -0.216994    -1.338139
 C    -3.417911    -2.189143    -0.630665
 C    -1.943059    -0.615746     1.399915
 O     1.336513    -0.309327     1.142615
 C     3.127380    -2.309220     0.245677
 C     1.772913    -0.422880    -1.577950
 P     1.499182    -1.444429    -0.045353
 P    -1.718598    -1.476680    -0.249073
 C     0.293934    -3.625289     1.312959
 O     0.457827    -4.094940     2.359935
 C    -2.635997     0.579011    -1.796186
 H    -3.047543     0.124745    -2.718604
 H    -3.442112     0.600897    -1.050470
 C    -2.195969     1.998431    -2.066144
 H    -1.785992     2.412375    -1.132212
 H    -1.379273     2.005475    -2.808166
 C    -3.349948     2.873437    -2.534994
 H    -4.179581     2.786078    -1.810525
 H    -3.743728     2.492549    -3.494437
 C    -2.959827     4.335115    -2.679779
 H    -2.616054     4.743740    -1.716023
 H    -2.137418     4.459509    -3.402313
 H    -3.803879     4.951633    -3.024807
 H    -3.454364    -2.258332    -1.729969
 H    -3.307126    -3.219382    -0.263774
 C    -4.683077    -1.613033    -0.073050
 C    -5.081829    -1.933878     1.233601
 H    -4.483544    -2.632982     1.824204
 C    -5.509497    -0.768295    -0.821718
 H    -5.241679    -0.543749    -1.857347
 C    -6.235303    -1.379420     1.779447
 H    -6.529822    -1.635500     2.799951
 C    -6.667082    -0.192177    -0.288119
 C    -7.487953     0.755472    -1.113923
 H    -6.963489     1.716891    -1.242872
 H    -7.675504     0.352345    -2.120705
 H    -8.458619     0.966469    -0.643847
 C    -7.017467    -0.501471     1.030390
 H    -7.919244    -0.064060     1.467102
 H    -2.702890    -1.190100     1.949970
 H    -0.977867    -0.787587     1.893416
 C    -2.256430     0.852086     1.409884
 C    -1.210564     1.780672     1.448105
 H    -0.182803     1.416270     1.461599
 C    -3.572296     1.333566     1.387245
 H    -4.401362     0.623421     1.378734
 C    -1.479237     3.148549     1.452258
 H    -0.650722     3.860881     1.489515
 C    -3.858422     2.701051     1.369283
 C    -5.278937     3.185188     1.306936
 H    -5.987658     2.350994     1.405185
 H    -5.492372     3.914547     2.103834
 H    -5.483355     3.689399     0.347603
 C    -2.791521     3.609441     1.402619
 H    -2.995199     4.684165     1.398326
 C     2.164805     0.004813     2.242238
 H     1.511022     0.040818     3.130677
 H     2.891628    -0.803950     2.429698
 C     2.868993     1.330730     2.050145
 H     3.460037     1.292614     1.121114
 H     2.109576     2.111795     1.884683
 C     3.759513     1.714735     3.221254
 H     4.522675     0.931128     3.382063
 H     3.163812     1.741799     4.150989
 C     4.445594     3.055271     3.012543
 H     5.062579     3.044255     2.099997
 H     3.706730     3.863196     2.892268
 H     5.097702     3.318327     3.859034
 H     3.131186    -2.587955     1.311965
 H     2.949846    -3.254214    -0.290179
 C     4.426606    -1.709106    -0.194968
 C     4.925712    -1.999269    -1.472146
 H     4.371563    -2.677760    -2.126704
 C     5.180832    -0.872448     0.633347
 H     4.827660    -0.660820     1.644390
 C     6.128267    -1.447548    -1.905421
 H     6.508934    -1.687897    -2.901002
 C     6.385401    -0.300335     0.214279
 C     7.136597     0.636806     1.113524
 H     6.780825     1.671533     0.976656
 H     6.993677     0.382181     2.173590
 H     8.214714     0.629289     0.898697
 C     6.851717    -0.597853    -1.071519
 H     7.796978    -0.169747    -1.416164
 H     2.446109    -1.009761    -2.222728
 H     0.777126    -0.408567    -2.045261
 C     2.261564     0.980566    -1.388290
 C     1.340629     1.970823    -1.030813
 H     0.292227     1.698058    -0.908898
 C     3.604625     1.338040    -1.549973
 H     4.331949     0.576064    -1.837684
 C     1.760590     3.281544    -0.826552
 H     1.029589     4.045580    -0.548907
 C     4.043086     2.650681    -1.345033
 C     5.485836     3.018958    -1.542560
 H     6.118688     2.123831    -1.616651
 H     5.623548     3.603857    -2.466974
 H     5.859263     3.639074    -0.712644
 C     3.103685     3.619922    -0.972164
 H     3.429322     4.650551    -0.804024
