  88
scf done:    -3950.036239
 C    -1.329925    -2.445247    -2.820524
 H    -1.199864    -3.494363    -3.109008
 H    -2.391072    -2.180043    -2.768546
 C    -0.473215    -1.472218    -3.558172
 H     0.149575    -1.913198    -4.348492
 H    -1.019625    -0.601337    -3.946767
 H     0.339623    -0.965629    -2.877582
Co    -0.142637    -1.790068    -1.413623
 O    -2.976397    -0.342994    -1.365800
 O    -2.410315    -1.793648     0.699252
 O    -1.575913     0.496198     0.571918
 O     1.407788    -0.449398     1.098420
 O     2.836832    -1.893417    -0.431900
 O     2.059985     0.464059    -1.130813
 P     1.501955    -0.917548    -0.461944
 P    -1.716073    -0.831523    -0.455044
 C     0.217430    -3.417485    -0.950539
 O     0.355740    -4.500329    -0.587851
 C    -4.007868     0.581093    -1.026307
 H    -4.949701     0.016949    -0.933357
 H    -3.804282     1.037854    -0.045476
 C    -4.112005     1.644836    -2.096049
 H    -3.133587     2.144072    -2.191650
 H    -4.316204     1.159639    -3.066060
 C    -5.186225     2.676693    -1.784308
 H    -4.971626     3.134117    -0.802284
 H    -6.162384     2.171755    -1.673711
 C    -5.288328     3.765316    -2.840185
 H    -4.335650     4.309478    -2.940673
 H    -5.531851     3.342358    -3.828000
 H    -6.068151     4.500706    -2.591148
 C    -3.632883    -1.571315     1.277505
 C    -4.745601    -2.241603     0.769472
 H    -4.611489    -2.908716    -0.084031
 C    -3.756879    -0.717520     2.373851
 H    -2.868945    -0.210404     2.751502
 C    -5.993902    -2.041751     1.354404
 H    -6.866209    -2.565693     0.956284
 C    -5.010152    -0.524734     2.951113
 H    -5.110012     0.145277     3.808499
 C    -6.131602    -1.180107     2.442779
 H    -7.111692    -1.024575     2.898972
 C    -1.121857     1.723756     0.203635
 C    -1.162848     2.725870     1.178448
 H    -1.554814     2.478405     2.166177
 C    -0.641569     2.016303    -1.076230
 H    -0.595309     1.233247    -1.833512
 C    -0.711493     4.007328     0.876698
 H    -0.746627     4.782793     1.645779
 C    -0.184516     3.301385    -1.361549
 H     0.209732     3.514383    -2.357725
 C    -0.216293     4.302503    -0.393769
 H     0.147652     5.305189    -0.625851
 C     0.942436    -1.394123     2.064641
 H    -0.115283    -1.631181     1.861601
 H     1.521985    -2.328788     1.971533
 C     1.107855    -0.798673     3.443030
 H     0.788578    -1.560661     4.175069
 H     2.180553    -0.618572     3.634372
 C     0.325170     0.488564     3.650854
 H    -0.743572     0.289426     3.461169
 H     0.631400     1.214891     2.881928
 C     0.509015     1.087279     5.034422
 H     0.178706     0.392191     5.823305
 H     1.567551     1.324559     5.228474
 H    -0.064839     2.019338     5.151446
 C     4.130080    -1.511591    -0.174587
 C     4.496179    -0.864238     1.006736
 H     3.736964    -0.623136     1.749395
 C     5.087982    -1.813494    -1.142345
 H     4.769159    -2.330417    -2.049306
 C     5.824495    -0.491813     1.195702
 H     6.105594     0.033419     2.111293
 C     6.414815    -1.444163    -0.937564
 H     7.163012    -1.678866    -1.698592
 C     6.787091    -0.774914     0.227998
 H     7.826522    -0.478032     0.383445
 C     2.927126     1.414404    -0.636788
 C     4.140714     1.597796    -1.295880
 H     4.384379     0.957834    -2.144983
 C     2.574183     2.211310     0.449914
 H     1.607251     2.068978     0.930131
 C     5.028112     2.566902    -0.837660
 H     5.986994     2.699123    -1.343990
 C     3.471015     3.178374     0.898078
 H     3.196838     3.803412     1.751407
 C     4.700453     3.356072     0.264925
 H     5.399997     4.113599     0.625303
