  74
scf done:    -3118.558465
 C    -0.631205    -2.598737    -2.026853
 H    -0.259628    -3.630183    -2.000060
 H    -1.722012    -2.601776    -2.132876
 C     0.089377    -1.703853    -2.983246
 H     0.901321    -2.186359    -3.545887
 H    -0.564733    -1.157982    -3.679169
 H     0.643864    -0.825845    -2.440183
Co     0.219822    -1.326590    -0.817888
 O    -1.496613     1.409338    -0.715422
 C    -3.176211    -0.749237    -1.010494
 C    -1.897485    -0.181735     1.499385
 O     1.305988     0.907524     1.340851
 C     3.350734    -0.374801    -0.004755
 C     1.681652     1.656426    -1.182900
 P     1.592338     0.160500    -0.126501
 P    -1.552750    -0.215343    -0.311028
 C     0.862072    -2.597266     0.116972
 O     1.221320    -3.460066     0.807228
 C    -2.203894     2.494841    -0.130189
 H    -3.035476     2.113022     0.487442
 C    -2.780401     3.331257    -1.256386
 H    -3.459170     2.731782    -1.880652
 H    -1.969457     3.704095    -1.900878
 H    -3.337432     4.195006    -0.862733
 C    -1.261794     3.286970     0.759687
 H    -0.792153     2.636079     1.509222
 H    -0.454601     3.734375     0.159087
 H    -1.798150     4.098848     1.274415
 H    -3.065911    -0.654488    -2.105033
 H    -3.221641    -1.834536    -0.816041
 C    -4.466983    -0.085426    -0.550737
 H    -4.445229     0.988188    -0.795337
 H    -4.551985    -0.148377     0.547366
 C    -5.698313    -0.716958    -1.184690
 H    -5.662137    -0.643840    -2.283439
 H    -5.772966    -1.786170    -0.929598
 H    -6.624674    -0.227059    -0.847340
 H    -0.998683     0.268715     1.947760
 H    -2.745973     0.485346     1.724813
 C    -2.150865    -1.565832     2.085326
 H    -1.280912    -2.209251     1.878189
 H    -3.002573    -2.041478     1.569061
 C    -2.434475    -1.525969     3.579300
 H    -1.595268    -1.078027     4.135363
 H    -3.331274    -0.925759     3.802925
 H    -2.598138    -2.536086     3.984503
 C     1.963771     0.620731     2.568084
 H     3.056692     0.636454     2.401023
 C     1.575733    -0.737078     3.125657
 H     1.809177    -1.555902     2.432062
 H     0.496633    -0.777343     3.333106
 H     2.112996    -0.927525     4.067065
 C     1.610798     1.753405     3.511809
 H     1.896969     2.722110     3.077723
 H     0.526204     1.768555     3.701119
 H     2.128236     1.632930     4.475063
 H     3.988772     0.450987     0.351428
 H     3.390406    -1.174096     0.753769
 C     3.853340    -0.919585    -1.337615
 H     3.903535    -0.101832    -2.077070
 H     3.105695    -1.635219    -1.721406
 C     5.211784    -1.592778    -1.227609
 H     5.978302    -0.895365    -0.853086
 H     5.173164    -2.447641    -0.534078
 H     5.552318    -1.970449    -2.203693
 H     1.982006     1.301569    -2.184813
 H     0.631377     1.975138    -1.278406
 C     2.567199     2.794878    -0.702727
 H     3.621065     2.469004    -0.667920
 H     2.287610     3.041123     0.334621
 C     2.449405     4.032809    -1.579192
 H     2.742048     3.817991    -2.619497
 H     1.412212     4.404409    -1.601955
 H     3.089564     4.850693    -1.214277
