  90
scf done:    -3727.809666
 C    -0.982315     0.054120    -3.062185
 H    -0.729433    -0.623379    -3.886952
 H    -2.056417     0.270186    -3.054122
 C    -0.095899     1.241977    -2.933979
 H     0.703162     1.319242    -3.685300
 H    -0.636591     2.196457    -2.855224
 H     0.513796     1.244115    -1.927780
Co    -0.088763    -0.300165    -1.364187
 O    -1.414778     1.389777     1.157691
 C    -3.182230     0.935849    -0.858616
 C    -2.366174    -1.147899     0.955003
 O     2.071560    -1.717156     0.687859
 C     3.173142     0.034690    -1.120175
 C     1.901792     0.844126     1.249732
 P     1.661200    -0.326172    -0.126808
 P    -1.695839     0.251709    -0.031930
 C    -0.081077    -1.952062    -1.771781
 O    -0.209794    -3.077722    -2.018943
 C    -2.041417     1.430248     2.441669
 H    -2.209752     0.393851     2.781043
 C    -3.380090     2.143680     2.401379
 H    -4.081237     1.653319     1.712836
 H    -3.257789     3.188682     2.076780
 H    -3.832507     2.146285     3.404974
 C    -1.062600     2.085972     3.391406
 H    -0.109707     1.540446     3.400468
 H    -0.860496     3.123553     3.085192
 H    -1.472421     2.100184     4.412689
 C    -3.343713     2.323063    -0.930942
 H    -2.660463     2.969889    -0.376629
 C    -4.040707     0.113423    -1.600063
 H    -3.892180    -0.970707    -1.585217
 C    -4.369524     2.866206    -1.701893
 H    -4.495312     3.950856    -1.752343
 C    -5.079327     0.643475    -2.370965
 C    -6.013386    -0.256802    -3.126785
 H    -6.251248     0.152891    -4.119830
 H    -5.582500    -1.258649    -3.263620
 H    -6.968117    -0.377713    -2.588195
 C    -5.233472     2.035377    -2.410255
 H    -6.034589     2.471236    -3.013894
 C    -3.722918    -1.309528     1.260221
 H    -4.465541    -0.624933     0.846220
 C    -1.432586    -2.029050     1.514469
 H    -0.372453    -1.906842     1.274182
 C    -4.127391    -2.337898     2.107647
 H    -5.187474    -2.462831     2.342333
 C    -1.822420    -3.048119     2.390172
 C    -0.807900    -3.973203     2.996442
 H    -0.624570    -4.841731     2.342736
 H     0.156636    -3.466662     3.140681
 H    -1.147981    -4.358597     3.968585
 C    -3.185585    -3.193852     2.672568
 H    -3.511449    -3.987587     3.350948
 C     2.568216    -2.862101    -0.017732
 H     2.379487    -2.728614    -1.097654
 C     1.807734    -4.080842     0.457637
 H     0.734374    -3.975093     0.253455
 H     1.955489    -4.224478     1.538661
 H     2.167029    -4.980004    -0.064478
 C     4.063003    -2.975374     0.214532
 H     4.589328    -2.085648    -0.157052
 H     4.272267    -3.081006     1.290525
 H     4.466337    -3.857884    -0.304632
 C     3.169722    -0.314394    -2.473510
 H     2.260716    -0.742933    -2.905111
 C     4.325214     0.603038    -0.560703
 H     4.328387     0.884716     0.495507
 C     4.312237    -0.111884    -3.246941
 H     4.311140    -0.391159    -4.303475
 C     5.473971     0.818602    -1.324819
 C     6.701522     1.437140    -0.720903
 H     6.575548     1.606926     0.357356
 H     7.584618     0.794719    -0.863672
 H     6.929074     2.407886    -1.190001
 C     5.451271     0.447903    -2.677425
 H     6.342210     0.607379    -3.291940
 C     2.468467     0.469534     2.471315
 H     2.700441    -0.580928     2.652988
 C     1.593816     2.184137     1.009669
 H     1.113730     2.461922     0.066534
 C     2.743691     1.447956     3.425251
 H     3.187952     1.164100     4.382640
 C     1.881181     3.176085     1.950093
 C     1.526933     4.607656     1.673777
 H     1.875602     4.923144     0.678691
 H     0.433324     4.748037     1.691267
 H     1.963703     5.285600     2.420443
 C     2.465893     2.788083     3.161162
 H     2.693750     3.547988     3.913824
