  98
scf done:    -4329.073304
 C     0.570652    -2.606079    -1.423417
 H     0.230583    -3.030677    -2.376666
 H     1.634459    -2.824154    -1.265465
 C    -0.306894    -2.907393    -0.258244
 H    -1.208233    -3.499130    -0.478361
 H     0.228766    -3.344321     0.598886
 H    -0.744732    -1.941166     0.243832
Co    -0.119354    -0.845115    -0.980601
 O     1.011862     0.386870     1.837609
 C     2.807447    -1.261417     0.470253
 C     2.430774     1.486398    -0.210071
 O    -2.457399     1.207552    -1.861659
 C    -3.432940    -0.857603    -0.427878
 C    -1.963499     1.338338     0.874241
 P    -1.951486     0.251128    -0.615988
 P     1.451271    -0.011358     0.288533
 C     0.064029    -0.414214    -2.611219
 O     0.292792    -0.133642    -3.714506
 C     1.793407     1.089074     2.764737
 H     2.657015     0.494914     3.099082
 H     2.154630     2.043577     2.347266
 H     1.144300     1.313166     3.624385
 C     3.565237    -1.517923    -0.689391
 O     3.306841    -0.703705    -1.729896
 C     3.702722    -1.061164    -3.022754
 H     3.180936    -0.377105    -3.703609
 H     4.793208    -0.955675    -3.163039
 H     3.404568    -2.096228    -3.261995
 C     2.988846    -2.123686     1.563661
 O     2.199777    -1.926263     2.648431
 C     2.332984    -2.767084     3.753905
 H     1.593238    -2.431305     4.493054
 H     3.338388    -2.702964     4.207372
 H     2.127495    -3.822651     3.500704
 C     3.944904    -3.150476     1.523650
 H     4.093731    -3.804937     2.381443
 C     4.516790    -2.541507    -0.744408
 H     5.099484    -2.710563    -1.649728
 C     4.703529    -3.345071     0.374502
 H     5.444730    -4.147306     0.348497
 C     3.774451     1.684493     0.175669
 O     4.263400     0.862794     1.125426
 C     5.643110     0.685747     1.262634
 H     5.778943    -0.181889     1.922304
 H     6.121900     0.471719     0.292042
 H     6.132477     1.563965     1.720178
 C     1.882281     2.406284    -1.129562
 O     0.583134     2.277724    -1.428485
 C     0.064795     2.938759    -2.554912
 H    -0.963638     2.577263    -2.656416
 H     0.639688     2.682634    -3.459767
 H     0.065374     4.034149    -2.417523
 C     2.672324     3.414332    -1.705124
 H     2.243832     4.101165    -2.432893
 C     4.565383     2.690126    -0.391029
 H     5.603449     2.818013    -0.085705
 C     4.004177     3.538727    -1.336814
 H     4.615398     4.325875    -1.785566
 C    -3.780901     1.680086    -1.916708
 H    -4.455499     0.902663    -2.313042
 H    -4.149078     2.001243    -0.929350
 H    -3.795866     2.545772    -2.595356
 C    -4.424743    -0.773772     0.569163
 O    -4.457636     0.349381     1.305810
 C    -5.165083     0.383567     2.510270
 H    -4.884645     1.322835     3.004753
 H    -6.257934     0.372243     2.350505
 H    -4.889952    -0.461126     3.165271
 C    -3.528355    -1.930061    -1.342848
 O    -2.686643    -1.882099    -2.384347
 C    -2.577598    -2.957224    -3.270108
 H    -1.777931    -2.690547    -3.972541
 H    -3.513242    -3.121650    -3.833088
 H    -2.302306    -3.890627    -2.748807
 C    -4.462437    -2.960223    -1.173016
 H    -4.504172    -3.794729    -1.871963
 C    -5.359063    -1.802947     0.752880
 H    -6.103548    -1.739379     1.545750
 C    -5.355129    -2.891722    -0.110052
 H    -6.086192    -3.691750     0.030645
 C    -1.920935     2.742792     0.882373
 O    -2.091732     3.384730    -0.293151
 C    -1.968114     4.773656    -0.341922
 H    -2.114527     5.062688    -1.390944
 H    -2.731855     5.282208     0.273451
 H    -0.967656     5.108913    -0.015967
 C    -1.780735     0.673113     2.099738
 O    -1.833399    -0.673244     2.029274
 C    -1.292583    -1.444774     3.068033
 H    -1.359739    -2.490303     2.739948
 H    -1.869456    -1.335458     4.003123
 H    -0.235828    -1.181090     3.227629
 C    -1.603877     1.360881     3.300889
 H    -1.472184     0.821299     4.238080
 C    -1.722489     3.444761     2.082072
 H    -1.688652     4.533031     2.086775
 C    -1.573785     2.750251     3.275809
 H    -1.424030     3.305885     4.204809
