  78
scf done:    -3693.417334
 C     1.594799    -0.541038    -2.819872
 H     1.350562    -0.401596    -3.879799
 H     2.551018    -0.052761    -2.586183
 C     1.471996    -1.941150    -2.322750
 H     1.151747    -2.674449    -3.075543
 H     2.360696    -2.308314    -1.788866
 H     0.651588    -2.046920    -1.491242
Co     0.103981    -0.387233    -1.564175
 C     2.899319    -0.021722     0.257174
 O     2.018656     2.129524    -0.910787
 O     0.679191     1.289826     1.111074
 C    -2.735294     0.223497     0.241927
 O    -2.415929    -2.201213    -0.582524
 O    -0.785593    -1.464052     1.235976
 P    -1.412299    -0.947260    -0.198295
 P     1.344722     0.749981    -0.303803
 C    -0.933522     0.360512    -2.722992
 O    -1.557299     0.993701    -3.461367
 C     2.771474    -1.258297     0.906598
 H     1.771492    -1.676590     1.064149
 C     4.171005     0.518132     0.048299
 H     4.262271     1.476592    -0.465946
 C     3.895656    -1.936040     1.364951
 H     3.821179    -2.894795     1.881530
 C     5.305700    -0.156376     0.496041
 H     6.310098     0.243614     0.344483
 C     5.150420    -1.371930     1.150847
 F     6.231024    -2.019596     1.581236
 C     1.224033     3.039726    -1.680163
 H     0.165129     2.730423    -1.611980
 C     1.652075     2.977227    -3.131048
 H     1.487342     1.971508    -3.536613
 H     2.720871     3.225782    -3.223595
 H     1.072497     3.691819    -3.734149
 C     1.386028     4.422408    -1.081579
 H     1.055035     4.443441    -0.033968
 H     2.442537     4.730680    -1.113874
 H     0.793954     5.158610    -1.645350
 C     1.340217     2.163464     2.031365
 H     2.139650     2.700257     1.490732
 C     1.947661     1.372794     3.175042
 H     2.712712     0.671797     2.817723
 H     1.167602     0.798337     3.696551
 H     2.417752     2.054534     3.899867
 C     0.304792     3.160850     2.513746
 H    -0.118509     3.728310     1.672161
 H    -0.521028     2.636362     3.018592
 H     0.750684     3.874439     3.222528
 C    -2.394838     1.569235     0.425474
 H    -1.354712     1.875617     0.308769
 C    -4.069389    -0.172158     0.398411
 H    -4.341322    -1.213857     0.222419
 C    -3.359184     2.502533     0.789430
 H    -3.110206     3.554014     0.943793
 C    -5.044150     0.754086     0.757729
 H    -6.090005     0.467430     0.882065
 C    -4.673562     2.079628     0.952581
 F    -5.602090     2.967481     1.297936
 C    -1.891790    -3.412414    -1.128296
 H    -0.834118    -3.514020    -0.817851
 C    -1.968749    -3.361328    -2.640898
 H    -1.401612    -2.497008    -3.014609
 H    -3.015550    -3.252605    -2.962795
 H    -1.556541    -4.279358    -3.086298
 C    -2.682897    -4.555517    -0.527345
 H    -2.601683    -4.555046     0.569180
 H    -3.746818    -4.461621    -0.793916
 H    -2.316058    -5.521793    -0.904200
 C    -1.587521    -1.871009     2.347978
 H    -2.603248    -2.109668     1.985077
 C    -1.661852    -0.742549     3.357215
 H    -2.111136     0.154410     2.909627
 H    -0.651481    -0.483447     3.706189
 H    -2.268635    -1.039513     4.225840
 C    -0.960703    -3.128993     2.913975
 H    -0.911320    -3.917393     2.148933
 H     0.064048    -2.920530     3.258779
 H    -1.543259    -3.506853     3.767417
