  90
scf done:    -3850.527750
 C     1.307479     2.923854     0.238752
 H     1.028669     3.778434     0.866310
 H     2.343960     2.625916     0.446450
 C     0.974226     3.061121    -1.207603
 H     0.472639     3.998377    -1.484370
 H     1.818968     2.868536    -1.885597
 H     0.221426     2.235374    -1.569207
Co    -0.059585     1.542899     0.012883
 C     2.713088     0.040546    -1.149405
 O     2.501872     0.182934     1.439140
 O     1.000100    -1.515474     0.231118
 C    -2.685211    -0.674606     0.118773
 O    -2.878304     1.315313    -1.546575
 O    -1.155652    -0.473593    -2.133814
 P    -1.649736     0.454692    -0.867319
 P     1.452117     0.075176     0.168034
 C    -0.972158     2.114520     1.354539
 O    -1.505872     2.442516     2.325883
 C     2.243343    -0.164170    -2.455492
 H     1.172712    -0.326451    -2.620742
 C     4.075034     0.273438    -0.936196
 H     4.434509     0.431920     0.082136
 C     3.124207    -0.156991    -3.531397
 H     2.783431    -0.319733    -4.555614
 C     4.964501     0.294052    -2.008955
 H     6.031626     0.475638    -1.867793
 C     4.475489     0.075195    -3.290854
 F     5.320809     0.092557    -4.318938
 C     2.020475     0.537302     2.726235
 H     1.287518     1.356153     2.628713
 H     1.496652    -0.325806     3.175005
 C     3.187097     0.954118     3.592479
 H     2.803002     1.130400     4.612418
 H     3.896396     0.110905     3.670763
 C     3.912451     2.194753     3.091005
 H     3.191190     3.027409     3.018292
 H     4.261181     2.011996     2.061123
 C     5.085090     2.598589     3.969019
 H     4.758966     2.818474     4.998505
 H     5.835677     1.793777     4.028533
 H     5.590929     3.496303     3.582597
 C     1.920546    -2.598260     0.283095
 H     1.431113    -3.428337    -0.251618
 H     2.836806    -2.341167    -0.274662
 C     2.258035    -3.012544     1.702014
 H     2.927836    -3.888695     1.640478
 H     2.841871    -2.209997     2.181069
 C     1.043777    -3.352665     2.554186
 H     0.461684    -4.150510     2.058557
 H     0.377443    -2.474994     2.590818
 C     1.406463    -3.774195     3.968402
 H     2.049710    -4.668832     3.969726
 H     1.956544    -2.974780     4.491023
 H     0.512008    -4.006330     4.566038
 C    -2.048177    -1.561608     0.995433
 H    -0.957820    -1.566530     1.050802
 C    -4.083900    -0.670114     0.046119
 H    -4.581202     0.030906    -0.625992
 C    -2.788930    -2.442599     1.775689
 H    -2.307297    -3.141155     2.462446
 C    -4.835567    -1.546565     0.824106
 H    -5.926244    -1.558508     0.783435
 C    -4.175713    -2.422777     1.677798
 F    -4.890567    -3.260845     2.424068
 C    -2.783475     2.699627    -1.840409
 H    -1.891623     3.114970    -1.339454
 H    -2.655585     2.819812    -2.929734
 C    -4.030381     3.408693    -1.359277
 H    -3.991290     4.451748    -1.720220
 H    -4.909757     2.948686    -1.844396
 C    -4.195741     3.385394     0.153801
 H    -3.330375     3.884441     0.621645
 H    -4.153576     2.341149     0.504502
 C    -5.485092     4.034526     0.626995
 H    -5.541868     5.091129     0.318248
 H    -6.367915     3.523642     0.209120
 H    -5.571372     4.003787     1.723422
 C    -2.035532    -1.265957    -2.919288
 H    -2.981189    -1.439157    -2.376961
 H    -2.278441    -0.711326    -3.840788
 C    -1.364395    -2.585863    -3.231427
 H    -2.009314    -3.146397    -3.930986
 H    -0.421889    -2.385854    -3.771733
 C    -1.080429    -3.413842    -1.986621
 H    -2.034526    -3.645433    -1.481155
 H    -0.512293    -2.787329    -1.281303
 C    -0.320679    -4.697383    -2.275166
 H    -0.872276    -5.349925    -2.971442
 H     0.660166    -4.486045    -2.731772
 H    -0.140573    -5.275383    -1.355474
