  74
scf done:    -3392.597937
 C    -0.965513    -3.415294    -1.040422
 H    -0.405634    -4.355542    -1.113713
 H    -1.921738    -3.596328    -0.536400
 C    -1.069197    -2.656459    -2.320768
 H    -0.551601    -3.112322    -3.176826
 H    -2.097843    -2.399008    -2.619365
 H    -0.567813    -1.605465    -2.246950
Co     0.051040    -1.804183    -0.624495
 C    -2.019543     0.822143    -0.000639
 C    -3.085223    -1.697035     0.884695
 C    -0.828003    -0.344345     2.365942
 C     1.934506     0.781573     0.486001
 C     3.043890    -0.730360    -1.685111
 C     0.794160     1.269125    -2.136245
 P     1.399009    -0.112124    -1.027991
 P    -1.445987    -0.801243     0.657819
 C     1.280743    -2.773583     0.029497
 O     2.084162    -3.434574     0.551100
 C    -1.708599     2.070783     0.552566
 H    -1.170151     2.137120     1.497800
 C    -2.711286     0.806511    -1.223902
 H    -2.955069    -0.151592    -1.691635
 C    -2.056960     3.259038    -0.091407
 H    -1.809753     4.232529     0.336704
 C    -3.081634     1.978811    -1.871748
 H    -3.619276     1.964141    -2.821580
 C    -2.739129     3.199266    -1.297889
 F    -3.074928     4.328763    -1.918849
 H    -3.260981    -2.086273    -0.134829
 C    -2.909064    -2.904336     1.802382
 H    -3.755013    -3.599928     1.682724
 H    -1.981435    -3.453766     1.587247
 H    -2.885680    -2.598909     2.859033
 C    -4.305438    -0.871687     1.275026
 H    -4.463689    -0.013840     0.606963
 H    -5.207866    -1.503638     1.225514
 H    -4.233007    -0.487181     2.301137
 H    -0.093041     0.441038     2.119339
 C    -1.853298     0.237254     3.334417
 H    -1.335857     0.685431     4.198516
 H    -2.486486     1.013749     2.883491
 H    -2.516389    -0.546471     3.729270
 C    -0.043560    -1.474968     3.024352
 H     0.691480    -1.915218     2.340438
 H     0.493684    -1.086415     3.904231
 H    -0.703214    -2.283572     3.369953
 C     2.634644     0.052367     1.461810
 H     2.894764    -0.993347     1.283399
 C     1.598310     2.110347     0.773393
 H     1.050247     2.712221     0.048896
 C     2.986139     0.624055     2.679083
 H     3.525963     0.057262     3.439650
 C     1.933360     2.694366     1.994584
 H     1.668859     3.728351     2.223863
 C     2.623091     1.941831     2.934789
 F     2.945298     2.492150     4.102871
 H     3.272120    -1.498988    -0.927163
 C     2.843955    -1.465992    -3.004579
 H     3.737736    -2.060212    -3.251359
 H     1.985260    -2.151598    -2.938134
 H     2.673818    -0.767608    -3.838718
 C     4.218460     0.238409    -1.722126
 H     4.297797     0.829813    -0.798066
 H     5.156787    -0.328865    -1.833893
 H     4.159561     0.934509    -2.569069
 H     0.038680     1.751267    -1.492267
 C     1.831063     2.311995    -2.544670
 H     1.321043     3.210000    -2.929563
 H     2.485053     2.624226    -1.719330
 H     2.471958     1.933201    -3.354045
 C     0.048763     0.756870    -3.364528
 H    -0.802985     0.122746    -3.091495
 H    -0.350448     1.611746    -3.932923
 H     0.702321     0.184435    -4.038907
