 102
scf done:    -3810.692429
 C    -0.865189    -1.208778    -2.998324
 H    -1.960289    -1.270649    -3.000385
 H    -0.502543    -0.895474    -3.985022
 C    -0.146460    -2.376951    -2.422041
 H    -0.777000    -3.251825    -2.206377
 H     0.737649    -2.705946    -2.986108
 H     0.263503    -2.139668    -1.350759
Co    -0.035279    -0.413648    -1.422755
 C     2.327690    -1.345746     1.090661
 C     3.313029    -0.045674    -1.256240
 C     1.842619     1.592170     0.639729
 C    -1.869702     1.606073     0.561932
 C    -3.466232    -0.296585    -1.148359
 C    -2.251632    -1.156178     1.310187
 P    -1.895035    -0.116506    -0.199894
 P     1.787155    -0.062469    -0.175397
 C     0.354854     0.880860    -2.448905
 O     0.572710     1.755932    -3.178502
 H     1.518322    -1.355826     1.835011
 C     3.636495    -1.086127     1.832206
 H     3.624741    -0.097854     2.314286
 H     4.466070    -1.075429     1.106717
 C     3.904894    -2.169947     2.873022
 H     4.852159    -1.959015     3.395383
 H     3.112221    -2.141964     3.643586
 C     3.941263    -3.552101     2.234933
 H     4.104828    -4.329542     2.998699
 H     4.801486    -3.606901     1.543714
 C     2.659231    -3.826321     1.460526
 H     1.814035    -3.894285     2.169121
 H     2.713539    -4.802769     0.952731
 C     2.362946    -2.731705     0.439502
 H     3.132819    -2.742071    -0.351801
 H     1.404491    -2.947054    -0.055975
 C     3.141906    -0.774817    -2.443900
 H     2.142991    -1.158994    -2.655460
 C     4.583983     0.518604    -0.988858
 C     4.953513     1.380695     0.189465
 H     5.930252     1.071384     0.591539
 H     4.225137     1.364174     1.001388
 H     5.048725     2.431039    -0.128785
 C     4.174901    -0.987729    -3.347580
 H     3.995501    -1.564789    -4.257494
 C     5.609856     0.301884    -1.923270
 H     6.590658     0.742379    -1.721236
 C     5.426609    -0.441410    -3.082141
 H     6.257272    -0.584370    -3.777636
 C     2.190289     2.651073    -0.216884
 H     2.384340     2.441132    -1.271330
 C     1.525420     1.880501     1.985620
 C     0.990595     0.872310     2.964391
 H     1.782959     0.237938     3.390650
 H     0.245030     0.206054     2.509708
 H     0.500351     1.384950     3.803478
 C     2.331624     3.951865     0.248712
 H     2.614534     4.748514    -0.442810
 C     1.697457     3.197788     2.437755
 H     1.474005     3.418946     3.485151
 C     2.117025     4.223032     1.597967
 H     2.240018     5.235533     1.989026
 H    -0.981292     1.486897     1.207494
 C    -3.027767     2.008009     1.473957
 H    -3.197614     1.230653     2.231962
 H    -3.958386     2.096074     0.887586
 C    -2.760021     3.340918     2.168116
 H    -3.619095     3.605570     2.806380
 H    -1.891597     3.228214     2.842950
 C    -2.468196     4.445378     1.162681
 H    -2.265156     5.397450     1.680012
 H    -3.364313     4.614915     0.537425
 C    -1.291166     4.054874     0.281317
 H    -0.387688     3.978456     0.905566
 H    -1.083130     4.835878    -0.467850
 C    -1.513051     2.722947    -0.425831
 H    -2.302746     2.849755    -1.183059
 H    -0.610327     2.444930    -0.979773
 C    -4.149953     0.824644    -1.637780
 H    -3.782346     1.822401    -1.406924
 C    -3.952595    -1.582013    -1.481551
 C    -3.301311    -2.850497    -1.010587
 H    -3.719764    -3.183920    -0.047049
 H    -2.224379    -2.724967    -0.849032
 H    -3.455843    -3.658557    -1.740267
 C    -5.300137     0.704248    -2.410935
 H    -5.809238     1.601863    -2.769668
 C    -5.109626    -1.683400    -2.264245
 H    -5.480359    -2.680322    -2.519810
 C    -5.788591    -0.560774    -2.724860
 H    -6.688152    -0.674658    -3.334345
 C    -1.127424    -1.862807     1.757094
 H    -0.222531    -1.772433     1.154754
 C    -3.473448    -1.329242     2.004812
 C    -4.804958    -0.775137     1.578536
 H    -5.338124    -1.509168     0.951893
 H    -4.732296     0.138470     0.985731
 H    -5.435098    -0.575121     2.457514
 C    -1.143379    -2.668980     2.889256
 H    -0.238283    -3.193671     3.205015
 C    -3.471619    -2.145639     3.147402
 H    -4.411264    -2.272102     3.692999
 C    -2.332031    -2.801471     3.600385
 H    -2.379984    -3.425639     4.496035
