  74
scf done:    -3194.229497
 C    -0.918018    -3.178967    -0.999699
 H    -0.724096    -4.175055    -0.583481
 H    -1.976975    -3.091593    -1.274193
 C     0.034905    -2.759178    -2.071214
 H     0.847246    -3.469961    -2.277619
 H    -0.442050    -2.471162    -3.021028
 H     0.597048    -1.773568    -1.792187
Co    -0.017652    -1.676764    -0.154339
 C    -1.410026     1.161205    -1.445254
 C    -3.324012    -0.850852    -0.782753
 C    -2.021132     0.605487     1.324574
 C     1.438744     0.950849     1.492953
 C     3.197933    -1.137226     0.672515
 C     2.135874     0.683678    -1.315581
 P     1.633082    -0.297537     0.164125
 P    -1.651215    -0.237785    -0.274614
 C     0.226943    -2.534855     1.296261
 O     0.312626    -3.064094     2.327409
 C    -1.136132     2.475185    -1.042861
 C    -1.324664     0.858594    -2.814184
 C    -0.698386     3.134339    -3.329838
 C    -0.981039     1.831979    -3.746764
 C    -0.778841     3.450258    -1.975549
 H    -1.180965     2.745863     0.012912
 H    -0.564017     4.467276    -1.636900
 H    -0.418251     3.897973    -4.059120
 H    -0.921731     1.571483    -4.806480
 H    -1.508169    -0.165233    -3.152677
 H    -4.000392     0.003410    -0.949106
 H    -3.195897    -1.344915    -1.760906
 C    -3.911565    -1.836692     0.221396
 H    -4.174699    -1.301918     1.149159
 H    -3.134738    -2.564448     0.507894
 C    -5.137511    -2.561245    -0.311343
 H    -5.933275    -1.853142    -0.593787
 H    -4.889496    -3.153595    -1.206931
 H    -5.554373    -3.251357     0.437955
 H    -2.059967    -0.205455     2.070605
 H    -1.115486     1.174818     1.584739
 C    -3.258527     1.489776     1.419485
 H    -4.166931     0.872574     1.326697
 H    -3.290928     2.192153     0.570338
 C    -3.302555     2.266009     2.727700
 H    -3.297287     1.585345     3.594059
 H    -2.423651     2.923542     2.827397
 H    -4.204562     2.893050     2.798723
 C     1.236177     0.487665     2.802571
 C     1.363603     2.327515     1.249819
 C     0.889604     2.748131     3.583461
 C     1.087147     3.218705     2.287252
 C     0.970884     1.378420     3.838183
 H     1.251867    -0.585142     3.011007
 H     0.810919     0.998113     4.849829
 H     0.670976     3.446400     4.394766
 H     1.026236     4.289557     2.077317
 H     1.499975     2.716721     0.240054
 H     3.997273    -0.392576     0.821429
 H     2.988939    -1.589380     1.656148
 C     3.608522    -2.222580    -0.312759
 H     3.838979    -1.769032    -1.293157
 H     2.735640    -2.877371    -0.477190
 C     4.798095    -3.039873     0.164003
 H     5.684948    -2.405693     0.323712
 H     4.574109    -3.542268     1.118344
 H     5.070445    -3.817177    -0.566155
 H     2.106947    -0.024711    -2.160497
 H     1.306426     1.382772    -1.513272
 C     3.475388     1.409095    -1.285354
 H     4.293815     0.670653    -1.262754
 H     3.573945     1.989636    -0.353181
 C     3.650992     2.329472    -2.484183
 H     3.584367     1.768202    -3.429921
 H     2.864969     3.101399    -2.509393
 H     4.626052     2.839654    -2.464928
