  90
scf done:    -4200.245128
 C    -0.138730     2.767815    -2.767836
 H     0.355226     2.953493    -3.729064
 H    -1.212465     2.971693    -2.858781
 C     0.532262     3.383763    -1.590381
 H     1.456136     3.935642    -1.809048
 H    -0.121324     4.003765    -0.958375
 H     0.880973     2.588318    -0.804420
Co     0.451088     1.198599    -1.779108
 C    -1.679320     0.949200     0.959433
 C    -2.937121     1.491608    -1.603346
 C    -1.862802    -1.169329    -1.096967
 C     1.730552    -1.728175    -0.397029
 C     3.602316     0.097201    -1.435331
 C     2.289607     0.664625     1.106794
 P     1.909185     0.089060    -0.619365
 P    -1.452415     0.642386    -0.835261
 C     0.827477     0.441183    -3.247790
 O     1.012519    -0.103537    -4.257604
 C    -1.217331     0.026713     1.911935
 C    -2.155983     2.185182     1.421018
 C    -1.789028     1.530903     3.719203
 C    -2.218448     2.471314     2.783761
 C    -1.279317     0.310983     3.274276
 H    -0.812677    -0.934483     1.590502
 H    -0.928763    -0.432514     3.994175
 H    -1.842036     1.750723     4.787753
 H    -2.602897     3.439203     3.115356
 H    -2.474840     2.950269     0.709935
 H    -2.835649     2.561926    -1.368119
 H    -2.726067     1.405866    -2.679874
 C    -4.313309     0.990586    -1.302658
 C    -4.911554     0.033859    -2.135989
 H    -4.384120    -0.302940    -3.032421
 C    -5.042913     1.432309    -0.189052
 H    -4.617024     2.185135     0.474889
 C    -6.167225    -0.497398    -1.855524
 H    -6.628598    -1.247276    -2.500271
 C    -6.302175     0.916302     0.104632
 H    -6.869083     1.256201     0.973148
 C    -6.846771    -0.053084    -0.728868
 F    -8.048290    -0.554720    -0.449036
 H    -2.538669    -1.163790    -1.967021
 H    -0.922326    -1.611125    -1.446274
 C    -2.426283    -2.022729     0.003089
 C    -1.707952    -3.149148     0.423082
 H    -0.761449    -3.391543    -0.062420
 C    -3.635793    -1.737339     0.648790
 H    -4.213727    -0.861673     0.358493
 C    -2.165873    -3.962681     1.456656
 H    -1.601975    -4.837428     1.785766
 C    -4.111285    -2.541364     1.679580
 H    -5.051890    -2.316560     2.185508
 C    -3.366819    -3.645228     2.076323
 F    -3.813334    -4.412969     3.071638
 C     1.462252    -2.496072    -1.541726
 C     1.942163    -2.388935     0.817724
 C     1.654935    -4.535223    -0.258526
 C     1.900299    -3.781917     0.886715
 C     1.432508    -3.886703    -1.474428
 H     1.292783    -2.003485    -2.502625
 H     1.229500    -4.466930    -2.377576
 H     1.630611    -5.626036    -0.204762
 H     2.072718    -4.279385     1.843957
 H     2.163099    -1.825749     1.725315
 H     3.406963    -0.262504    -2.456814
 H     3.877237     1.157958    -1.534978
 C     4.667960    -0.712944    -0.765263
 C     5.515702    -0.162252     0.205615
 H     5.446416     0.899756     0.450799
 C     4.819556    -2.075038    -1.064722
 H     4.182660    -2.531360    -1.824951
 C     6.465482    -0.935633     0.869561
 H     7.127880    -0.505407     1.622725
 C     5.760933    -2.863772    -0.412419
 H     5.876180    -3.923776    -0.645142
 C     6.571338    -2.283791     0.555603
 F     7.473496    -3.033241     1.187955
 H     1.492427     0.253705     1.742644
 H     3.241985     0.211153     1.425673
 C     2.304777     2.158290     1.255594
 C     3.326689     2.956803     0.724906
 H     4.167767     2.496452     0.204809
 C     1.249091     2.799183     1.914778
 H     0.443224     2.201535     2.341558
 C     3.296320     4.344342     0.835989
 H     4.090389     4.968401     0.422307
 C     1.200495     4.184730     2.035207
 H     0.374074     4.680258     2.547743
 C     2.226072     4.944002     1.488089
 F     2.186988     6.271385     1.593113
