  82
scf done:    -3423.127548
 C    -2.692399    -2.540016    -1.182964
 H    -3.732831    -2.746227    -0.903459
 H    -2.605783    -2.488460    -2.275844
 C    -1.687072    -3.429330    -0.525927
 H    -2.099941    -4.143485     0.200223
 H    -1.026428    -3.967494    -1.223666
 H    -0.910101    -2.820184     0.099464
Co    -1.712263    -1.273009    -0.079217
 C     1.195705    -0.557168    -1.713049
 C    -1.085993    -0.632993    -3.434845
 C    -0.755145     1.574131    -1.625289
 C    -0.089612     1.127310     1.722570
 C    -1.226067    -1.011649     3.245688
 C     1.179480    -1.482257     1.699771
 P    -0.468032    -0.658695     1.599089
 P    -0.618365    -0.265744    -1.680022
 C    -3.136372    -0.569608     0.533801
 O    -4.089609    -0.002446     0.883518
 C     1.641316    -1.878543    -1.906042
 H     0.918470    -2.659889    -2.158180
 C     2.152661     0.396808    -1.361465
 H     1.858100     1.432771    -1.189606
 C     2.971309    -2.228031    -1.747393
 H     3.312495    -3.255019    -1.891386
 C     3.497514     0.059010    -1.179762
 H     4.205014     0.837520    -0.892073
 C     3.914795    -1.261294    -1.365087
 O     5.180168    -1.695331    -1.195807
 C     6.155060    -0.779355    -0.785496
 H     5.913565    -0.335742     0.197254
 H     7.096408    -1.336806    -0.700206
 H     6.288919     0.036209    -1.518127
 H    -0.353051    -0.173877    -4.118339
 H    -0.993081    -1.725019    -3.563835
 C    -2.507172    -0.190454    -3.766219
 H    -2.552475     0.911251    -3.785445
 H    -3.180164    -0.501259    -2.950357
 C    -3.003386    -0.741643    -5.093517
 H    -2.350874    -0.434435    -5.926802
 H    -3.025816    -1.843383    -5.080945
 H    -4.022177    -0.391619    -5.319763
 H    -1.829291     1.772498    -1.475233
 H    -0.283421     1.881479    -0.680316
 C    -0.210030     2.399888    -2.783946
 H    -0.797835     2.203188    -3.695348
 H     0.819597     2.088355    -3.024640
 C    -0.235144     3.890580    -2.474453
 H    -1.261114     4.232347    -2.261196
 H     0.375879     4.124614    -1.587238
 H     0.148350     4.488108    -3.315815
 C     1.197448     1.660527     1.560100
 H     2.061206     0.999974     1.475791
 C    -1.161538     2.023967     1.811542
 H    -2.182851     1.645935     1.905400
 C     1.400137     3.030163     1.457820
 H     2.398892     3.446844     1.313075
 C    -0.972386     3.400716     1.721909
 H    -1.838608     4.060006     1.778598
 C     0.315254     3.913479     1.521675
 O     0.599767     5.221132     1.367910
 C    -0.454067     6.144437     1.365372
 H    -0.998827     6.149408     2.325685
 H    -0.005281     7.133198     1.207744
 H    -1.170834     5.942673     0.549946
 H    -0.552412    -0.677884     4.052298
 H    -2.130689    -0.383147     3.298182
 C    -1.610300    -2.476997     3.394596
 H    -0.701719    -3.104687     3.369655
 H    -2.202783    -2.762260     2.508276
 C    -2.393299    -2.762134     4.665819
 H    -1.814917    -2.493532     5.564516
 H    -3.330041    -2.183028     4.689761
 H    -2.657947    -3.827633     4.745102
 H     0.992686    -2.544482     1.469409
 H     1.754359    -1.109992     0.836303
 C     1.983483    -1.358234     2.987755
 H     1.468855    -1.899050     3.799268
 H     2.024397    -0.305456     3.313009
 C     3.395854    -1.901679     2.826438
 H     3.382954    -2.963551     2.533362
 H     3.941379    -1.358110     2.037701
 H     3.974021    -1.817472     3.759259
