  62
scf done:    -3409.629680
 C    -0.375269    -3.703823     0.821625
 H     0.369663    -4.493004     0.976230
 H    -1.021953    -3.589039     1.697159
 C    -1.064517    -3.742246    -0.498153
 H    -0.753309    -4.561179    -1.162343
 H    -2.162446    -3.708891    -0.443192
 H    -0.831733    -2.792423    -1.154528
Co     0.249140    -2.046375    -0.001080
 C    -2.230171     0.292721     0.716871
 O    -1.557262    -1.523820     2.560462
 O     0.000671     0.452108     2.010831
 C     1.997802     0.706639    -0.898474
 O     1.678077    -1.137304    -2.725898
 O    -0.287475     0.425112    -2.087882
 P     0.839557    -0.572353    -1.422953
 P    -0.850101    -0.760535     1.276196
 C     1.855733    -2.464817     0.422632
 O     2.912529    -2.716256     0.822288
 C    -3.425160    -0.339464     0.336814
 H    -3.523995    -1.423014     0.456767
 C    -2.131285     1.673783     0.559796
 H    -1.213434     2.176028     0.870127
 C    -4.484969     0.386381    -0.180963
 H    -5.421351    -0.093934    -0.471125
 C    -3.184631     2.417999     0.025950
 H    -3.071527     3.496633    -0.086330
 C    -4.369842     1.775678    -0.349577
 O    -5.442172     2.400650    -0.872339
 C    -5.388011     3.786164    -1.067894
 H    -4.581303     4.071051    -1.766288
 H    -6.352351     4.080920    -1.500582
 H    -5.242279     4.329851    -0.117828
 C    -2.244948    -0.801815     3.557737
 H    -1.657588     0.064052     3.902877
 H    -3.219713    -0.437814     3.191875
 H    -2.411793    -1.484938     4.402555
 C     1.296174     0.191248     2.511789
 H     1.321357    -0.733111     3.111281
 H     2.032608     0.106332     1.699070
 H     1.569012     1.041275     3.152322
 C     1.559890     1.989958    -0.545271
 H     0.512893     2.255477    -0.696053
 C     3.344315     0.381351    -0.724030
 H     3.701781    -0.613086    -0.998977
 C     2.445624     2.916822    -0.020005
 H     2.120776     3.921087     0.258368
 C     4.244467     1.305559    -0.198352
 H     5.289236     1.020192    -0.075672
 C     3.794983     2.581464     0.164193
 O     4.580235     3.541436     0.688036
 C     5.937454     3.266512     0.896358
 H     6.458493     3.030128    -0.048097
 H     6.379581     4.173617     1.327431
 H     6.083452     2.428758     1.600871
 C     1.481307    -2.451192    -3.191053
 H     1.337253    -3.150008    -2.348923
 H     0.607091    -2.515413    -3.862090
 H     2.377047    -2.745335    -3.756094
 C    -1.520133    -0.086426    -2.531849
 H    -1.460295    -0.380389    -3.593395
 H    -1.833443    -0.957653    -1.932109
 H    -2.280041     0.698900    -2.415642
