  54
scf done:    -3180.730493
 C     0.510280    -3.234636    -0.797247
 H    -0.185035    -4.001306    -1.158042
 H     1.357189    -3.111809    -1.479574
 C     0.845109    -3.322791     0.651085
 H     0.360537    -4.148367     1.191424
 H     1.922049    -3.317202     0.874105
 H     0.475622    -2.381897     1.256360
Co    -0.273558    -1.584613    -0.106479
 C     2.357342     0.691443    -0.100528
 O     2.115600    -1.036042    -2.127961
 O     0.517782     0.970524    -1.899818
 C    -2.143931     1.185534     0.419070
 O    -2.319284    -0.714348     2.209643
 O    -0.229194     0.809835     2.129724
 P    -1.172594    -0.140319     1.175343
 P     1.128872    -0.294566    -1.030607
 C    -1.728926    -1.958426    -0.932058
 O    -2.654397    -2.180010    -1.589671
 C     2.245740     2.070679     0.091315
 C     3.402631    -0.004149     0.521762
 C     4.194693     2.043964     1.523098
 C     4.321018     0.667969     1.323265
 C     3.158092     2.742128     0.904979
 H     1.441755     2.610557    -0.411475
 H     3.061626     3.820614     1.053301
 H     4.909427     2.572721     2.158365
 H     5.137613     0.117838     1.797343
 H     3.496811    -1.084053     0.369513
 C     3.042130    -0.304660    -2.900657
 H     2.575463     0.587518    -3.347655
 H     3.904657     0.019151    -2.294372
 H     3.396692    -0.967224    -3.702656
 C    -0.613753     0.770002    -2.723271
 H    -0.478904    -0.095293    -3.392362
 H    -1.525413     0.618337    -2.126997
 H    -0.732722     1.677890    -3.330099
 C    -3.411863     0.888387    -0.094067
 C    -1.605365     2.462823     0.240520
 C    -3.582152     3.129138    -0.978254
 C    -2.324329     3.430494    -0.457648
 C    -4.127588     1.858959    -0.789953
 H    -3.836330    -0.107054     0.050993
 H    -5.116769     1.621595    -1.188282
 H    -4.142810     3.888551    -1.528785
 H    -1.899903     4.428132    -0.594060
 H    -0.625060     2.690885     0.660354
 C    -2.280486    -2.047658     2.660639
 H    -1.944482    -2.725700     1.857277
 H    -1.607760    -2.160036     3.528465
 H    -3.297683    -2.327565     2.968576
 C     0.835538     0.253530     2.862267
 H     0.494613    -0.068792     3.860497
 H     1.279198    -0.608211     2.335420
 H     1.612405     1.022497     2.975016
