  90
scf done:    -3803.477252
 C    -0.966097    -0.331857     3.293261
 H    -0.754968     0.266428     4.188275
 H    -2.041478    -0.529023     3.212351
 C    -0.094151    -1.527707     3.120881
 H     0.663449    -1.673414     3.904357
 H    -0.633157    -2.471958     2.951990
 H     0.569633    -1.447799     2.161340
Co    -0.005517     0.127262     1.661575
 C    -1.731772    -1.645775    -0.700059
 C    -3.401686     0.004827     0.956018
 C    -1.882278     1.261114    -0.948360
 C     1.762448     1.456456    -0.948310
 C     3.298632     0.148914     1.071023
 C     1.903561    -1.438438    -0.792784
 P     1.652540     0.068167     0.240298
 P    -1.682702    -0.097339     0.284873
 C     0.360389     1.687851     2.254135
 O     0.512200     2.781535     2.610702
 C    -1.245632    -1.742445    -2.009106
 C    -2.102192    -2.829084    -0.040242
 C    -1.560040    -4.138028    -1.997435
 C    -2.030266    -4.059752    -0.685920
 C    -1.158671    -2.976367    -2.651338
 H    -0.931989    -0.842483    -2.539643
 H    -0.769005    -3.026390    -3.670608
 H    -1.498652    -5.104376    -2.503453
 H    -2.340119    -4.966087    -0.159480
 H    -2.464839    -2.781604     0.990683
 C    -3.638018     0.974059     1.936855
 H    -2.801482     1.561180     2.324539
 C    -4.478762    -0.734637     0.457418
 H    -4.310083    -1.479898    -0.323936
 C    -4.931139     1.188298     2.406498
 H    -5.111341     1.949686     3.169453
 C    -5.781040    -0.538165     0.928482
 C    -6.923506    -1.356894     0.399371
 H    -7.279905    -2.076173     1.155145
 H    -7.781094    -0.722048     0.128361
 H    -6.628936    -1.929772    -0.491219
 C    -5.992813     0.435497     1.911604
 H    -7.004559     0.607759     2.290088
 C    -2.637591     1.127194    -2.118609
 H    -3.087539     0.167072    -2.380101
 C    -1.367964     2.515712    -0.610690
 H    -0.782993     2.620218     0.303922
 C    -2.829732     2.229929    -2.947565
 H    -3.407977     2.120878    -3.868768
 C    -1.583923     3.638900    -1.413249
 C    -1.066211     4.985233    -0.999757
 H    -1.884355     5.617883    -0.617132
 H    -0.312884     4.893524    -0.205539
 H    -0.608362     5.517946    -1.846578
 C    -2.307259     3.473988    -2.599227
 H    -2.472818     4.334459    -3.254155
 C     2.343702     2.661075    -0.532113
 C     1.166532     1.394115    -2.213158
 C     1.773712     3.689740    -2.643784
 C     1.177271     2.500661    -3.057959
 C     2.349859     3.768744    -1.376550
 H     2.795082     2.732375     0.460281
 H     2.808916     4.701209    -1.039462
 H     1.781810     4.559253    -3.305438
 H     0.703128     2.434139    -4.039520
 H     0.685008     0.473219    -2.543540
 C     3.357839     0.126790     2.463767
 H     2.423898     0.101101     3.030228
 C     4.487872     0.202737     0.332879
 H     4.447007     0.221480    -0.759314
 C     4.596210     0.155327     3.106893
 H     4.641646     0.138663     4.198598
 C     5.732862     0.238757     0.960896
 C     7.003525     0.309367     0.164365
 H     7.681307    -0.520339     0.419775
 H     6.804098     0.263015    -0.915254
 H     7.548302     1.245646     0.366309
 C     5.769074     0.211315     2.363643
 H     6.735652     0.236551     2.875363
 C     2.570986    -1.434941    -2.022815
 H     2.914582    -0.497738    -2.464405
 C     1.478609    -2.660013    -0.260411
 H     0.929002    -2.668295     0.682843
 C     2.792947    -2.634330    -2.696547
 H     3.303582    -2.624810    -3.662828
 C     1.722669    -3.873413    -0.906768
 C     1.314445    -5.174756    -0.282065
 H     2.182056    -5.675099     0.179457
 H     0.558872    -5.022064     0.500491
 H     0.896123    -5.866053    -1.028446
 C     2.377146    -3.841929    -2.143434
 H     2.561882    -4.777434    -2.679134
