  82
scf done:    -5785.019664
 C     1.122247     0.262780    -3.785786
 H     2.192009     0.409781    -3.605381
 H     0.953643    -0.341178    -4.684554
 C     0.293594     1.500088    -3.694558
 H     0.876362     2.412211    -3.499855
 H    -0.387291     1.662085    -4.541083
 H    -0.432746     1.487755    -2.776564
Co    -0.018342    -0.127103    -2.243508
 C    -2.578917     1.376591    -0.512255
 O    -2.869640    -1.155020    -1.408742
 O    -1.444733    -0.648117     0.663373
 C     2.534946    -1.369591    -0.391913
 O     2.787400     1.121433    -1.432633
 O     1.387220     0.708168     0.668126
 P     1.575536     0.088639    -0.884426
 P    -1.648019    -0.130472    -0.907032
 C    -0.423462    -1.625996    -2.980825
 O    -0.606448    -2.665366    -3.444939
 C    -3.067418     1.653762     0.768322
 C    -2.860073     2.255537    -1.564999
 C    -4.089704     3.681710    -0.057648
 C    -3.612506     3.404362    -1.338531
 C    -3.819429     2.804299     0.990275
 H    -2.849691     0.966553     1.585963
 H    -4.185703     3.025738     1.994952
 H    -4.667987     4.589678     0.126571
 H    -3.824789     4.087521    -2.164195
 H    -2.489927     2.037947    -2.570673
 C    -4.061069    -1.255595    -0.735876
 C    -4.185568    -2.123264     0.348812
 H    -3.328671    -2.720899     0.663714
 C    -5.151671    -0.495097    -1.157198
 H    -5.033887     0.179497    -2.006348
 C    -5.401637    -2.225792     1.018135
 H    -5.512979    -2.901625     1.867379
 C    -6.368263    -0.593849    -0.490689
 H    -7.227437    -0.001570    -0.808767
 C    -6.485929    -1.456778     0.598242
Cl    -7.998013    -1.577040     1.436544
 C    -0.709450    -1.736360     1.031605
 C    -0.529235    -2.847213     0.205615
 H    -0.998176    -2.892099    -0.776989
 C    -0.148028    -1.717825     2.309334
 H    -0.322012    -0.850539     2.945929
 C     0.255791    -3.912553     0.640625
 H     0.417887    -4.774350    -0.007683
 C     0.624531    -2.784119     2.748732
 H     1.076234    -2.772370     3.741724
 C     0.836662    -3.874183     1.903928
Cl     1.827769    -5.190687     2.438578
 C     2.665352    -2.391126    -1.339264
 C     3.188177    -1.478328     0.841195
 C     4.101066    -3.611223     0.168374
 C     3.967321    -2.598223     1.116734
 C     3.451315    -3.506307    -1.060885
 H     2.138469    -2.310484    -2.293290
 H     3.547072    -4.302333    -1.802929
 H     4.705280    -4.492677     0.394213
 H     4.467290    -2.686032     2.083790
 H     3.080316    -0.682669     1.579157
 C     3.987668     1.267703    -0.792856
 C     5.069200     0.466574    -1.161167
 H     4.935337    -0.282108    -1.943616
 C     4.132271     2.222794     0.213732
 H     3.280768     2.848057     0.487632
 C     6.295065     0.614055    -0.521340
 H     7.145943    -0.010363    -0.797518
 C     5.357699     2.374221     0.856320
 H     5.484216     3.117998     1.644528
 C     6.432219     1.565642     0.488681
Cl     7.956325     1.746689     1.294601
 C     0.689241     1.840147     0.938934
 C     0.434661     2.829480    -0.016280
 H     0.821645     2.723571    -1.029494
 C     0.236922     2.013546     2.249924
 H     0.472177     1.249019     2.990939
 C    -0.310849     3.954771     0.327413
 H    -0.529389     4.719480    -0.418943
 C    -0.495072     3.141212     2.597382
 H    -0.856038     3.276867     3.618082
 C    -0.780171     4.103491     1.628113
Cl    -1.726131     5.492920     2.051353
