  90
scf done:    -4124.573998
 C     0.913232    -4.000482     1.296262
 H     0.843838    -4.977630     0.804460
 H     1.905769    -3.875480     1.746381
 C    -0.216399    -3.677001     2.212399
 H    -1.031943    -4.412721     2.226610
 H     0.085590    -3.439807     3.243720
 H    -0.752206    -2.676879     1.910794
Co     0.098163    -2.474606     0.395687
 O     2.531006    -0.344478     1.566013
 C     3.426831    -2.317909     0.126837
 C     1.987539    -0.174534    -1.157643
 O    -1.227136    -0.007187    -1.232874
 C    -2.997954    -2.116242    -0.480177
 C    -2.120169    -0.033677     1.398550
 P    -1.497299    -1.086408    -0.019452
 P     1.892032    -1.296738     0.343485
 C    -0.105640    -3.349432    -1.066207
 O    -0.126159    -3.881478    -2.094542
 C     1.673216     0.453696     2.367429
 H     0.807323     0.767410     1.754384
 C     2.445761     1.688453     2.778317
 H     2.794710     2.235024     1.892564
 H     3.323632     1.403168     3.378489
 H     1.816823     2.358517     3.384223
 C     1.169096    -0.356524     3.546971
 H     0.632207    -1.243528     3.183785
 H     2.015152    -0.692997     4.165679
 H     0.488812     0.236002     4.178057
 H     3.526575    -2.888529     1.061856
 H     3.179240    -3.044242    -0.662090
 C     4.691004    -1.580551    -0.182983
 C     5.216296    -1.568447    -1.481433
 H     4.712739    -2.133891    -2.270452
 C     5.372808    -0.863502     0.811272
 H     4.967474    -0.847573     1.823496
 C     6.373542    -0.855731    -1.792685
 H     6.785905    -0.844297    -2.803093
 C     6.530076    -0.149589     0.519398
 H     7.062897     0.414024     1.287472
 C     7.015915    -0.150965    -0.783660
 F     8.124769     0.533052    -1.067530
 H     2.742051    -0.605396    -1.832086
 H     1.005991    -0.261493    -1.640039
 C     2.301570     1.263260    -0.879201
 C     1.265636     2.172167    -0.630557
 H     0.235259     1.814330    -0.651133
 C     3.618042     1.739818    -0.855232
 H     4.443780     1.052607    -1.044682
 C     1.525093     3.515586    -0.369567
 H     0.718283     4.227955    -0.187627
 C     3.895878     3.079463    -0.595654
 H     4.920702     3.454916    -0.579778
 C     2.842913     3.953947    -0.355419
 F     3.102022     5.240011    -0.109844
 C    -2.161922     0.489053    -2.200039
 H    -3.177430     0.405910    -1.783683
 C    -2.043426    -0.341034    -3.464554
 H    -2.212109    -1.409946    -3.270834
 H    -1.033476    -0.238036    -3.889361
 H    -2.770831    -0.005892    -4.219476
 C    -1.863707     1.952454    -2.443917
 H    -1.960456     2.531628    -1.516362
 H    -0.843552     2.081510    -2.835275
 H    -2.571200     2.361759    -3.180299
 H    -2.771926    -2.506684    -1.484092
 H    -2.852310    -2.976184     0.192500
 C    -4.410582    -1.629270    -0.376714
 C    -5.090777    -1.687198     0.848286
 H    -4.594751    -2.121955     1.720273
 C    -5.108604    -1.131468    -1.485677
 H    -4.628086    -1.123171    -2.466266
 C    -6.393221    -1.213927     0.984745
 H    -6.920539    -1.254118     1.939343
 C    -6.410567    -0.653057    -1.370749
 H    -6.954298    -0.262889    -2.232933
 C    -7.034731    -0.687073    -0.129123
 F    -8.277225    -0.227073    -0.010916
 H    -2.925622    -0.606280     1.883569
 H    -1.281806    -0.007277     2.107634
 C    -2.566408     1.366296     1.092535
 C    -1.697531     2.442624     1.314110
 H    -0.698520     2.257010     1.714335
 C    -3.846650     1.648290     0.596447
 H    -4.555451     0.836454     0.431210
 C    -2.078083     3.754654     1.042066
 H    -1.404828     4.594254     1.224048
 C    -4.242833     2.952476     0.315300
 H    -5.240504     3.172821    -0.068481
 C    -3.350114     3.993872     0.538699
 F    -3.724765     5.243711     0.274927
