  94
scf done:    -4104.260230
 C     1.232981     0.847152    -3.415765
 H     1.213883     1.740861    -4.050240
 H     2.262780     0.488358    -3.299904
 C     0.225324    -0.199928    -3.752823
 H    -0.401306     0.027227    -4.626217
 H     0.640340    -1.213864    -3.832322
 H    -0.582728    -0.332869    -2.915475
Co     0.089424     0.866525    -1.832270
 C     1.563809     0.058547     1.132978
 O     2.068731    -1.453070    -1.134083
 O     3.154450     0.846709    -0.907383
 C    -1.964744     1.310837     0.929001
 O    -2.887515    -0.054534    -1.240425
 O    -1.078449    -1.161114     0.220618
 P    -1.442067     0.297627    -0.495583
 P     1.669764     0.097347    -0.689171
 C    -0.246941     2.540068    -2.058318
 O    -0.365586     3.684589    -2.182760
 C     1.299656     1.280424     1.763549
 C     1.629371    -1.107389     1.899888
 C     1.160195     0.170521     3.898209
 C     1.427672    -1.049261     3.277144
 C     1.101216     1.338157     3.139164
 H     1.242249     2.194773     1.168405
 H     0.888378     2.297343     3.615832
 H     0.997369     0.211202     4.977950
 H     1.477182    -1.967209     3.867729
 H     1.835453    -2.066709     1.427560
 C     3.101626    -2.280901    -0.779494
 C     4.435004    -1.879124    -0.857111
 H     4.666183    -0.872293    -1.200679
 C     2.756428    -3.592917    -0.406817
 C     1.324154    -4.030629    -0.418586
 H     1.207563    -5.021809     0.039867
 H     0.670534    -3.321484     0.109202
 H     0.941899    -4.084008    -1.450441
 C     5.445991    -2.772277    -0.506356
 H     6.488477    -2.450157    -0.562295
 C     3.792715    -4.464224    -0.061918
 H     3.538886    -5.484835     0.237826
 C     5.127766    -4.064181    -0.097400
 H     5.916720    -4.766414     0.180649
 C     3.848773     1.615268    -0.011758
 C     4.521993     1.023900     1.058237
 H     4.459838    -0.056306     1.195042
 C     3.896983     3.001599    -0.228705
 C     3.159908     3.622801    -1.375108
 H     3.606318     4.587592    -1.653540
 H     3.155338     2.960129    -2.251005
 H     2.103430     3.808153    -1.123935
 C     5.248708     1.815298     1.942548
 H     5.768106     1.349012     2.782809
 C     4.643012     3.770558     0.671044
 H     4.698072     4.851544     0.514272
 C     5.309192     3.193936     1.750210
 H     5.880309     3.822038     2.437719
 C    -2.764946     0.794557     1.957034
 C    -1.548060     2.644435     0.996786
 C    -2.708484     2.924796     3.093670
 C    -1.920132     3.448650     2.071546
 C    -3.131675     1.597313     3.032567
 H    -3.115118    -0.236025     1.918017
 H    -3.758560     1.183075     3.825442
 H    -2.998783     3.553382     3.939064
 H    -1.587570     4.488506     2.109284
 H    -0.925763     3.061167     0.204542
 C    -4.159230     0.229950    -0.799725
 C    -4.892478    -0.754553    -0.140103
 H    -4.433085    -1.728129     0.040169
 C    -4.704417     1.490512    -1.084043
 C    -3.909309     2.514717    -1.832661
 H    -4.563285     3.288447    -2.257167
 H    -3.183066     3.019630    -1.175927
 H    -3.330002     2.051900    -2.644588
 C    -6.189832    -0.478772     0.283244
 H    -6.762981    -1.248446     0.805152
 C    -6.009486     1.738509    -0.646256
 H    -6.454671     2.715007    -0.855586
 C    -6.747375     0.774294     0.036909
 H    -7.764070     0.999272     0.366905
 C    -1.823111    -2.257966     0.538315
 C    -2.061234    -2.534747     1.885656
 H    -1.658751    -1.850949     2.634948
 C    -2.231115    -3.144382    -0.473511
 C    -1.875560    -2.895556    -1.906373
 H    -1.887620    -3.832323    -2.480268
 H    -2.578280    -2.190640    -2.376266
 H    -0.874523    -2.447054    -1.980661
 C    -2.781069    -3.670405     2.245535
 H    -2.972021    -3.880993     3.300332
 C    -2.954418    -4.276250    -0.081007
 H    -3.285869    -4.976401    -0.852728
 C    -3.244304    -4.536858     1.256865
 H    -3.811569    -5.429982     1.527814
