  74
scf done:    -3194.212698
 C    -1.020956    -3.042818    -1.374362
 H    -0.593206    -4.051005    -1.313545
 H    -2.103077    -3.093720    -1.207169
 C    -0.612823    -2.270724    -2.584119
 H     0.088527    -2.788531    -3.253885
 H    -1.450788    -1.874103    -3.179207
 H    -0.033845    -1.297141    -2.305470
Co     0.010084    -1.590101    -0.582562
 C    -1.792404     1.292267    -0.538973
 C    -3.399969    -1.054105    -0.128150
 C    -1.568587    -0.016876     2.038086
 C     1.774660     0.706851     1.177985
 C     3.299175    -0.944675    -0.604808
 C     1.592382     1.349611    -1.647719
 P     1.628685    -0.101599    -0.466710
 P    -1.671977    -0.388616     0.205917
 C     0.826773    -2.723258     0.380588
 O     1.325815    -3.494734     1.094942
 C    -1.501370     2.488245     0.129810
 C    -2.071146     1.362063    -1.914719
 C    -1.752244     3.755894    -1.917247
 C    -2.060562     2.574700    -2.595115
 C    -1.474929     3.705420    -0.553774
 H    -1.274226     2.481281     1.195842
 H    -1.237005     4.622882    -0.009106
 H    -1.732479     4.709116    -2.450483
 H    -2.281772     2.598006    -3.665065
 H    -2.285426     0.441992    -2.466372
 H    -3.295152    -1.416334    -1.167022
 C    -3.679013    -2.273238     0.747107
 H    -4.528365    -2.846436     0.342103
 H    -2.810505    -2.944564     0.807282
 H    -3.947416    -1.972683     1.770879
 C    -4.563385    -0.070052    -0.102826
 H    -4.389367     0.801698    -0.748536
 H    -5.478134    -0.572652    -0.459255
 H    -4.768748     0.299897     0.910562
 H    -0.694926     0.656427     2.065416
 C    -2.759353     0.706355     2.659698
 H    -2.485181     1.080628     3.659802
 H    -3.106470     1.562740     2.065257
 H    -3.612384     0.024948     2.794852
 C    -1.190099    -1.242523     2.863748
 H    -0.342273    -1.783553     2.427597
 H    -0.909043    -0.926974     3.881198
 H    -2.026891    -1.949688     2.954824
 C     2.035978    -0.114384     2.287034
 C     1.540119     2.069203     1.403349
 C     1.809113     1.766255     3.787682
 C     1.552199     2.592542     2.696743
 C     2.058515     0.409987     3.575549
 H     2.200845    -1.185271     2.148282
 H     2.259435    -0.250852     4.422082
 H     1.817277     2.176479     4.800194
 H     1.359086     3.657564     2.848338
 H     1.326771     2.738469     0.570132
 H     3.173108    -1.737196     0.152278
 C     3.429620    -1.644999    -1.951807
 H     4.270175    -2.356466    -1.934262
 H     2.511660    -2.205733    -2.185759
 H     3.622421    -0.929194    -2.766044
 C     4.543326    -0.149411    -0.231331
 H     4.405823     0.423254     0.697666
 H     5.385774    -0.842130    -0.072035
 H     4.845416     0.549544    -1.022303
 H     0.743439     1.933374    -1.252515
 C     2.833740     2.237219    -1.664766
 H     2.593771     3.198599    -2.147499
 H     3.228475     2.453096    -0.662844
 H     3.641065     1.774350    -2.250854
 C     1.210735     0.947513    -3.068679
 H     0.237787     0.443297    -3.103019
 H     1.130063     1.850690    -3.694025
 H     1.959375     0.287332    -3.530700
