  90
scf done:    -3653.583390
 C    -0.982897     0.450147    -3.231358
 H    -0.888554    -0.162658    -4.137260
 H    -2.020395     0.789727    -3.112877
 C     0.028689     1.539211    -3.115725
 H     0.838726     1.508189    -3.856170
 H    -0.397048     2.554435    -3.075524
 H     0.578837     1.495677    -2.091789
Co    -0.000058    -0.098421    -1.635455
 C    -2.380083     1.385220     0.464420
 C    -3.136798    -1.172207    -0.812145
 C    -1.274331    -1.192462     1.242900
 C     2.277095    -1.121627     0.933201
 C     3.144213     0.796271    -1.052181
 C     1.283586     1.622422     0.944038
 P     1.624735     0.211681    -0.188762
 P    -1.670352    -0.189727    -0.250225
 C     0.400668    -1.617908    -2.325908
 O     0.504783    -2.682930    -2.774049
 H    -1.547953     1.738354     1.103978
 C    -3.651604     1.317384     1.306562
 H    -3.548603     0.588827     2.125231
 H    -4.482200     0.960702     0.674269
 C    -4.009058     2.690209     1.871670
 H    -4.931005     2.621340     2.472100
 H    -3.209523     3.018149     2.561228
 C    -4.170974     3.721327     0.761477
 H    -4.398546     4.713474     1.184489
 H    -5.038452     3.442977     0.135895
 C    -2.922779     3.786488    -0.110034
 H    -2.081496     4.173917     0.491578
 H    -3.067518     4.495914    -0.941380
 C    -2.538966     2.415426    -0.655108
 H    -3.312924     2.066134    -1.363022
 H    -1.598835     2.478346    -1.221613
 C    -3.251119    -1.568612    -2.147699
 C    -4.109936    -1.612154     0.099629
 C    -5.307548    -2.743271    -1.666819
 C    -5.188471    -2.382720    -0.324069
 C    -4.330761    -2.342791    -2.573966
 H    -2.467361    -1.286756    -2.849446
 H    -4.397842    -2.643356    -3.622407
 H    -6.151999    -3.352264    -1.999050
 H    -5.934600    -2.715262     0.401939
 H    -4.008827    -1.377159     1.160195
 C    -0.986695    -2.551068     1.029421
 C    -1.187591    -0.689615     2.544820
 C    -0.521484    -2.860459     3.380376
 C    -0.807044    -1.516650     3.604758
 C    -0.621789    -3.377346     2.086013
 H    -1.054561    -2.959774     0.017425
 H    -0.409504    -4.432647     1.898661
 H    -0.228529    -3.507635     4.210442
 H    -0.741574    -1.103379     4.614646
 H    -1.407431     0.359266     2.745136
 H     1.454300    -1.293565     1.650698
 C     3.547890    -0.746023     1.696923
 H     3.416429     0.193115     2.255567
 H     4.357514    -0.561414     0.970849
 C     3.973187    -1.869263     2.637805
 H     4.887405    -1.577296     3.179942
 H     3.189592    -2.022244     3.402303
 C     4.194714    -3.167977     1.872518
 H     4.473056    -3.981652     2.561976
 H     5.048304    -3.037434     1.182885
 C     2.953959    -3.547840     1.074607
 H     2.135985    -3.790144     1.775337
 H     3.137351    -4.457814     0.480772
 C     2.488446    -2.422160     0.156420
 H     3.239304    -2.253687    -0.636864
 H     1.560714    -2.714670    -0.351767
 C     3.420232     0.283875    -2.325640
 C     4.039739     1.709664    -0.479649
 C     5.463682     1.567967    -2.427055
 C     5.189925     2.094421    -1.164635
 C     4.577807     0.660612    -3.004894
 H     2.705428    -0.405132    -2.782619
 H     4.781943     0.248827    -3.996221
 H     6.366562     1.871079    -2.962842
 H     5.877824     2.810641    -0.708518
 H     3.833404     2.128145     0.507906
 C     1.075028     2.889246     0.374747
 C     1.110267     1.480858     2.324905
 C     0.507674     3.814528     2.532323
 C     0.718162     2.566343     3.110872
 C     0.698695     3.974466     1.158162
 H     1.212280     3.028714    -0.700520
 H     0.547107     4.951158     0.692613
 H     0.201640     4.663419     3.148067
 H     0.580851     2.429946     4.186498
 H     1.265906     0.513383     2.801658
