  74
scf done:    -3044.339597
 C     1.330696     2.063945     1.930817
 H     0.981327     2.529439     2.861031
 H     2.324987     1.624050     2.090176
 C     1.228949     2.939375     0.727872
 H     0.700524     3.887832     0.890580
 H     2.184838     3.144121     0.221725
 H     0.625970     2.418162    -0.125446
Co     0.039537     1.078491     0.845466
 C     2.719508    -0.776481    -0.552226
 C     2.204202    -1.141395     2.259429
 C     0.472944    -2.294100     0.281740
 C    -2.625218    -0.645108    -0.707744
 C    -2.468492     2.186193    -1.176979
 C    -0.599304     0.394345    -2.462016
 P    -1.365116     0.733772    -0.805333
 P     1.313188    -0.688418     0.689743
 C    -1.110860     1.221186     2.105472
 O    -1.803811     1.278978     3.034651
 H     2.185955    -0.843830    -1.520984
 C     3.669276    -1.971590    -0.455158
 H     3.116607    -2.923732    -0.467094
 H     4.204030    -1.933120     0.509831
 C     4.695358    -1.960922    -1.586598
 H     5.377361    -2.821216    -1.486316
 H     4.170614    -2.091161    -2.550646
 C     5.483861    -0.656974    -1.615745
 H     6.190025    -0.651299    -2.461948
 H     6.097060    -0.585951    -0.698969
 C     4.553300     0.547713    -1.686644
 H     4.024483     0.544252    -2.657446
 H     5.131495     1.485510    -1.651745
 C     3.521156     0.524941    -0.564355
 H     4.036702     0.644985     0.406116
 H     2.836769     1.379878    -0.652709
 H     3.129234    -0.540788     2.275189
 C     1.424272    -0.907806     3.544007
 H     0.492424    -1.488843     3.576666
 H     1.141553     0.147756     3.646864
 H     2.524470    -2.193653     2.178499
 H     2.028221    -1.193485     4.419728
 H     1.231842    -3.082278     0.155760
 C    -0.571466    -2.731915     1.296037
 H    -1.226974    -1.894477     1.574515
 H    -0.101854    -3.103609     2.218044
 H     0.013584    -2.148843    -0.710283
 H    -1.198764    -3.545111     0.898567
 H    -2.008178    -1.558273    -0.645594
 C    -3.537807    -0.783930    -1.930186
 H    -2.948088    -0.886571    -2.853316
 H    -4.143690     0.132213    -2.043205
 C    -4.474044    -1.982622    -1.794463
 H    -5.129320    -2.047236    -2.678511
 H    -3.871971    -2.909506    -1.785868
 C    -5.300833    -1.910277    -0.517451
 H    -5.941769    -2.801688    -0.421633
 H    -5.982124    -1.041924    -0.575701
 C    -4.402783    -1.761250     0.703393
 H    -3.801482    -2.679852     0.828555
 H    -5.005942    -1.659523     1.619792
 C    -3.461178    -0.568504     0.572448
 H    -4.058040     0.361132     0.568492
 H    -2.812818    -0.502122     1.455928
 H    -3.369106     2.038220    -0.559235
 C    -1.877118     3.551687    -0.870763
 H    -0.983335     3.765455    -1.476053
 H    -1.581993     3.611173     0.186314
 H    -2.795019     2.119278    -2.227991
 H    -2.611052     4.347558    -1.071174
 H    -1.387949     0.375294    -3.230362
 C     0.492483     1.375663    -2.854367
 H     1.278349     1.416875    -2.087115
 H     0.097157     2.394723    -2.982002
 H    -0.188593    -0.628323    -2.405083
 H     0.962977     1.084072    -3.806008
