  90
scf done:    -3502.263496
 C    -1.085543    -2.721859    -1.844621
 H    -0.806365    -3.781873    -1.807839
 H    -2.165776    -2.589632    -1.729739
 C    -0.480343    -1.953907    -2.971988
 H     0.144597    -2.548547    -3.653668
 H    -1.201255    -1.357816    -3.548968
 H     0.279661    -1.144873    -2.599372
Co     0.062879    -1.455446    -0.894244
 C    -1.634989     1.525798    -0.006752
 O    -3.047588    -0.641841    -0.853317
 O    -1.937927    -0.626927     1.471827
 C     1.656497     0.550284     1.329513
 O     3.121890    -0.849495    -0.558224
 O     1.841620     1.288259    -1.219436
 P     1.646521    -0.131134    -0.389799
 P    -1.591579    -0.335192    -0.123655
 C     0.785003    -2.784106    -0.086652
 O     1.184516    -3.699496     0.497429
 H    -0.569679     1.801448     0.107791
 C    -2.394447     2.097897     1.191080
 H    -1.988171     1.680983     2.123034
 H    -3.447613     1.770840     1.151842
 C    -2.341090     3.621675     1.211881
 H    -2.917596     4.006991     2.068859
 H    -1.295284     3.943967     1.371557
 C    -2.853859     4.219563    -0.092277
 H    -2.789350     5.319574    -0.067522
 H    -3.925237     3.973415    -0.208823
 C    -2.077694     3.667726    -1.281276
 H    -1.029291     4.005930    -1.205151
 H    -2.467999     4.079316    -2.226496
 C    -2.119133     2.143266    -1.321773
 H    -3.149608     1.810109    -1.515801
 H    -1.522630     1.765216    -2.167798
 C    -4.321561    -0.808439    -0.233825
 H    -4.189860    -0.748987     0.859562
 C    -4.844204    -2.185017    -0.601762
 H    -4.149750    -2.969408    -0.273195
 H    -4.960590    -2.266734    -1.693613
 H    -5.823047    -2.369422    -0.133442
 C    -5.268487     0.287059    -0.689239
 H    -4.926105     1.280457    -0.368817
 H    -5.350173     0.287463    -1.787200
 H    -6.272270     0.123786    -0.268551
 C    -1.452887    -1.745523     2.211584
 H    -0.376696    -1.849630     1.998000
 C    -2.146081    -3.030279     1.808456
 H    -1.994217    -3.225627     0.737795
 H    -3.225981    -2.974799     2.017050
 H    -1.726514    -3.879416     2.368140
 C    -1.650215    -1.405403     3.673827
 H    -1.153520    -0.456486     3.921691
 H    -2.721643    -1.300456     3.904698
 H    -1.231426    -2.195543     4.314418
 H     0.577015     0.658286     1.544891
 C     2.298024     1.925762     1.511079
 H     1.847681     2.643792     0.810805
 H     3.368557     1.878795     1.248402
 C     2.148580     2.406354     2.950903
 H     2.639933     3.385270     3.074423
 H     1.075754     2.568381     3.164162
 C     2.709645     1.395744     3.944734
 H     2.568730     1.752265     4.978004
 H     3.801192     1.306986     3.793684
 C     2.065176     0.026734     3.761466
 H     0.993785     0.094356     4.019606
 H     2.505252    -0.705262     4.457772
 C     2.205207    -0.473974     2.328006
 H     3.265059    -0.667206     2.106641
 H     1.696577    -1.442683     2.207185
 C     4.379383    -0.233650    -0.840301
 H     4.195846     0.802185    -1.173978
 C     5.021353    -1.026239    -1.964327
 H     4.377926    -1.044917    -2.853263
 H     5.185838    -2.065726    -1.642236
 H     5.991766    -0.589585    -2.244768
 C     5.266504    -0.217710     0.391543
 H     4.853322     0.412564     1.189621
 H     5.389398    -1.238549     0.784290
 H     6.261538     0.175865     0.134487
 C     1.369302     1.445186    -2.556968
 H     0.339350     1.045206    -2.592055
 C     2.220966     0.675472    -3.547828
 H     2.244284    -0.396147    -3.303063
 H     3.254324     1.054545    -3.551598
 H     1.811555     0.782763    -4.563570
 C     1.351414     2.930650    -2.841134
 H     0.749113     3.459769    -2.091198
 H     2.373716     3.337684    -2.811580
 H     0.924791     3.130682    -3.835023
