  86
scf done:    -4272.006209
 C     0.977599     0.244463     3.585376
 H     0.761582    -0.373261     4.465736
 H     2.056799     0.418025     3.499349
 C     0.136126     1.467211     3.458969
 H    -0.607330     1.609282     4.256517
 H     0.696760     2.402451     3.312878
 H    -0.541596     1.431709     2.505577
Co    -0.012420    -0.139377     1.950131
 C     1.818329     1.627795    -0.349749
 C     3.382174    -0.155255     1.258437
 C     1.810363    -1.267160    -0.703029
 C    -1.725466    -1.251109    -0.807818
 C    -3.312634    -0.188215     1.312202
 C    -1.895371     1.590795    -0.385410
 P    -1.659579     0.001777     0.519918
 P     1.677895     0.052657     0.577943
 C    -0.447225    -1.691964     2.519217
 O    -0.651061    -2.782113     2.859182
 C     2.199157     2.776097     0.370278
 H     2.548891     2.676690     1.402176
 C     1.364375     1.809177    -1.657709
 H     1.047876     0.946835    -2.246403
 C     2.136777     4.037497    -0.197123
 H     2.432737     4.927533     0.361693
 C     1.286446     3.074343    -2.241546
 H     0.905615     3.166917    -3.258701
 C     1.664830     4.201938    -1.508765
 O     1.591543     5.468211    -1.958632
 C     1.034603     5.705926    -3.223981
 H    -0.018254     5.380036    -3.271068
 H     1.075994     6.790504    -3.384493
 H     1.607193     5.206787    -4.025093
 C     3.568017    -1.168041     2.209183
 H     2.699670    -1.725835     2.570002
 C     4.499694     0.550598     0.801067
 H     4.382530     1.334167     0.049272
 C     4.834677    -1.470378     2.696861
 H     4.991239    -2.257556     3.436557
 C     5.773893     0.266113     1.288337
 H     6.653681     0.812217     0.942935
 C     5.923890    -0.742475     2.231169
 F     7.139339    -1.019104     2.699969
 C     1.217396    -2.503802    -0.427368
 H     0.628164    -2.626588     0.481623
 C     2.583740    -1.136654    -1.863599
 H     3.099467    -0.197552    -2.076164
 C     1.367626    -3.580028    -1.295355
 H     0.908017    -4.546933    -1.085697
 C     2.718113    -2.196366    -2.756354
 H     3.307486    -2.104336    -3.670515
 C     2.100863    -3.406609    -2.460636
 F     2.222812    -4.424765    -3.310732
 C    -1.189919    -1.011040    -2.082552
 H    -0.821125    -0.016520    -2.337262
 C    -2.176051    -2.541118    -0.515163
 H    -2.582788    -2.764167     0.474625
 C    -1.114181    -2.017386    -3.029667
 H    -0.686715    -1.837552    -4.017412
 C    -2.102443    -3.565710    -1.457535
 H    -2.458754    -4.560297    -1.188682
 C    -1.559102    -3.310165    -2.722093
 O    -1.410594    -4.232790    -3.688672
 C    -1.748769    -5.563828    -3.414045
 H    -2.823238    -5.677509    -3.186386
 H    -1.514068    -6.140401    -4.317347
 H    -1.161526    -5.968232    -2.570962
 C    -3.406020    -0.071604     2.701760
 H    -2.487210     0.064647     3.277461
 C    -4.481806    -0.405879     0.571403
 H    -4.429545    -0.524704    -0.513032
 C    -4.637266    -0.152512     3.347750
 H    -4.723583    -0.065829     4.432276
 C    -5.717748    -0.496621     1.201390
 H    -6.637164    -0.672805     0.640143
 C    -5.778296    -0.363183     2.585464
 F    -6.959795    -0.448982     3.190988
 C    -2.706306     1.702678    -1.523605
 H    -3.203377     0.821083    -1.932801
 C    -1.272014     2.742699     0.104328
 H    -0.611159     2.671110     0.968569
 C    -2.874223     2.924734    -2.166772
 H    -3.491744     3.021329    -3.061563
 C    -1.443797     3.977336    -0.514343
 H    -0.943771     4.875112    -0.148322
 C    -2.235249     4.045886    -1.650928
 F    -2.367696     5.214487    -2.283582
