  98
scf done:    -3706.870867
 C     0.726203    -1.480540    -2.857743
 H     0.957968    -2.505382    -3.172972
 H    -0.079850    -1.076457    -3.483028
 C     1.915228    -0.589548    -2.718851
 H     2.881761    -1.065060    -2.938984
 H     1.848123     0.363302    -3.265584
 H     2.062782    -0.228818    -1.618851
Co     0.710395    -1.111152    -0.944287
 C    -0.895450     1.977235    -0.871007
 C    -2.222047    -0.027286    -2.380910
 C    -2.201369    -0.205199     0.475375
 C     0.443894    -0.800524     2.476921
 C     3.001723    -1.508824     1.497267
 C     2.032096     1.224796     1.218357
 P     1.509142    -0.534321     1.000924
 P    -1.069888     0.143777    -0.941152
 C     0.564914    -2.774193    -0.599862
 O     0.362464    -3.898443    -0.387006
 C    -1.113053     2.731043     0.290711
 H    -1.491537     2.249762     1.195204
 C    -0.396250     2.645190    -2.000746
 H    -0.194510     2.084288    -2.917586
 C    -0.850376     4.100169     0.327887
 H    -1.017100     4.690032     1.231206
 C    -0.135127     4.011593    -1.984216
 H     0.251786     4.532662    -2.861882
 C    -0.364043     4.723449    -0.812667
 F    -0.092424     6.029575    -0.779459
 H    -3.045042     0.698566    -2.280481
 H    -1.659801     0.261165    -3.284323
 C    -2.744686    -1.449140    -2.531584
 H    -1.898917    -2.153081    -2.455040
 H    -3.411672    -1.690951    -1.685714
 C    -3.491067    -1.679621    -3.837622
 H    -2.816594    -1.454972    -4.684327
 H    -4.325650    -0.959237    -3.920652
 C    -4.027685    -3.096522    -3.984563
 H    -3.189338    -3.808964    -3.890942
 H    -4.700776    -3.317313    -3.137066
 C    -4.760040    -3.333483    -5.295263
 H    -5.135667    -4.365198    -5.371009
 H    -4.099327    -3.156346    -6.159276
 H    -5.623571    -2.656612    -5.399220
 H    -2.258017    -1.304695     0.525572
 H    -1.655369     0.078386     1.387972
 C    -3.593210     0.408973     0.475772
 H    -3.538205     1.490110     0.260974
 H    -4.197308    -0.025893    -0.338210
 C    -4.310805     0.193492     1.802172
 H    -3.710231     0.639552     2.616648
 H    -4.346487    -0.888348     2.025589
 C    -5.719770     0.767063     1.839221
 H    -5.676563     1.846604     1.609152
 H    -6.315864     0.314211     1.027097
 C    -6.422183     0.553845     3.170372
 H    -7.437225     0.979144     3.168653
 H    -5.864810     1.025291     3.995883
 H    -6.510739    -0.518580     3.407498
 C     0.166734     0.191911     3.425243
 H     0.637574     1.173360     3.356232
 C    -0.180442    -2.049719     2.621131
 H     0.003113    -2.840595     1.890791
 C    -0.725018    -0.038959     4.472171
 H    -0.952440     0.732815     5.209839
 C    -1.061120    -2.298932     3.667412
 H    -1.553490    -3.266503     3.779952
 C    -1.332387    -1.282617     4.576905
 F    -2.190546    -1.507239     5.568325
 H     3.418126    -1.087251     2.428131
 H     2.618234    -2.513898     1.742230
 C     4.049282    -1.619105     0.400463
 H     3.541540    -1.943183    -0.524534
 H     4.477153    -0.625146     0.182558
 C     5.175197    -2.586447     0.734193
 H     4.745298    -3.582879     0.943040
 H     5.671211    -2.271325     1.670501
 C     6.212479    -2.705792    -0.373696
 H     5.706601    -3.012732    -1.306199
 H     6.637324    -1.707184    -0.580222
 C     7.332374    -3.681936    -0.052288
 H     8.064406    -3.745705    -0.871591
 H     6.939276    -4.696427     0.122051
 H     7.876630    -3.380558     0.857343
 H     1.107541     1.790183     1.415653
 H     2.664341     1.308318     2.119098
 C     2.706127     1.854026     0.008027
 H     3.655772     1.342597    -0.223850
 H     2.053890     1.704315    -0.866756
 C     2.949191     3.345798     0.182716
 H     3.628746     3.521558     1.036518
 H     1.993346     3.827218     0.453038
 C     3.506771     4.017072    -1.064228
 H     4.503511     3.599212    -1.291908
 H     2.866760     3.750621    -1.923782
 C     3.588580     5.530303    -0.943905
 H     4.011508     5.988888    -1.850666
 H     4.221737     5.831445    -0.093671
 H     2.589597     5.966033    -0.783646
