  78
scf done:    -3646.333313
 C    -0.931265    -0.080514    -3.290932
 H    -0.704474    -0.787209    -4.098759
 H    -2.010477     0.106166    -3.242002
 C    -0.079477     1.141050    -3.272758
 H     0.676676     1.197893    -4.069134
 H    -0.632215     2.091080    -3.225809
 H     0.586148     1.194570    -2.311693
Co     0.026513    -0.306128    -1.608354
 C    -1.791667     1.744503     0.461619
 C    -3.372466    -0.175277    -0.974606
 C    -1.870788    -1.083510     1.133791
 C     1.756073    -1.178227     1.230653
 C     3.329205    -0.347672    -1.000836
 C     1.968725     1.613561     0.529829
 P     1.687404    -0.051257    -0.210697
 P    -1.673077     0.072906    -0.290449
 C     0.409028    -1.925683    -1.999692
 O     0.578282    -3.050017    -2.226650
 C    -1.358902     2.033460     1.761304
 C    -2.156243     2.814860    -0.371554
 C    -1.705098     4.397632     1.397739
 C    -2.122516     4.126204     0.093864
 C    -1.317445     3.347074     2.225357
 H    -1.051559     1.221688     2.422730
 H    -0.972120     3.548654     3.242085
 H    -1.674729     5.426780     1.763034
 H    -2.423589     4.942879    -0.567163
 H    -2.478703     2.615672    -1.397762
 C    -3.560124    -1.297282    -1.792609
 C    -4.479709     0.610842    -0.640094
 C    -5.924336    -0.827471    -1.940269
 C    -5.747001     0.288733    -1.125648
 C    -4.826872    -1.623738    -2.267977
 H    -2.696789    -1.915222    -2.054161
 H    -4.956619    -2.503404    -2.903087
 H    -6.918134    -1.078925    -2.318663
 H    -6.602511     0.914268    -0.858611
 H    -4.358795     1.480630     0.009168
 C    -1.261326    -2.338598     1.054920
 C    -2.714670    -0.805060     2.217035
 C    -2.288703    -2.997498     3.138168
 C    -2.910273    -1.750853     3.219884
 C    -1.474254    -3.292419     2.047961
 H    -0.617352    -2.569588     0.206066
 H    -0.988211    -4.267207     1.970081
 H    -2.448596    -3.741658     3.922376
 H    -3.565566    -1.518534     4.063145
 H    -3.235052     0.153914     2.273102
 C     2.206719    -2.491641     1.044582
 C     1.255045    -0.803556     2.482433
 C     1.690121    -3.015086     3.346681
 C     1.225862    -1.715038     3.534753
 C     2.176674    -3.401743     2.098244
 H     2.581437    -2.805329     0.067104
 H     2.535174    -4.421765     1.940296
 H     1.665156    -3.731006     4.171597
 H     0.827285    -1.408466     4.504389
 H     0.886895     0.212032     2.637798
 C     3.399967    -0.375822    -2.395781
 C     4.504450    -0.509278    -0.255941
 C     5.789465    -0.700726    -2.292926
 C     5.726049    -0.686940    -0.898526
 C     4.624740    -0.545560    -3.040320
 H     2.473251    -0.283782    -2.967389
 H     4.665019    -0.566676    -4.131994
 H     6.749665    -0.841018    -2.795377
 H     6.635551    -0.819156    -0.307439
 H     4.465526    -0.514573     0.835437
 C     1.346117     2.717305    -0.059384
 C     2.830579     1.826558     1.614932
 C     2.443144     4.208369     1.487366
 C     3.060752     3.113498     2.092997
 C     1.587158     4.007198     0.408248
 H     0.645193     2.562728    -0.880225
 H     1.085291     4.853762    -0.064588
 H     2.627507     5.218026     1.862422
 H     3.731542     3.262775     2.942628
 H     3.320723     0.980918     2.101284
