 110
scf done:    -3515.728152
 C    -1.148227    -0.833905    -2.897268
 H    -1.128657    -1.800636    -3.415676
 H    -2.141243    -0.381364    -3.002950
 C    -0.017790     0.079011    -3.250644
 H     0.705461    -0.334182    -3.968403
 H    -0.327185     1.082037    -3.582841
 H     0.647191     0.323489    -2.324345
Co    -0.201793    -0.716180    -1.199722
 C    -1.075576     2.185269     0.547038
 C    -3.132723     1.166657    -1.150257
 C    -2.475125    -0.215017     1.286124
 C     1.365212    -0.542397     1.903005
 C     2.894426    -1.647820    -0.325314
 C     2.417766     1.210410    -0.185937
 P     1.563526    -0.424999     0.054106
 P    -1.658676     0.563808    -0.189144
 C    -0.236517    -2.410354    -1.025309
 O    -0.338916    -3.556724    -0.864889
 H    -0.182631     1.888964     1.128835
 C    -2.010010     2.922231     1.505275
 H    -2.313030     2.266522     2.335773
 H    -2.937940     3.207433     0.978044
 C    -1.346940     4.181593     2.061146
 H    -2.045125     4.715100     2.726734
 H    -0.486734     3.885143     2.689141
 C    -0.859419     5.105638     0.950915
 H    -0.352625     5.986194     1.378019
 H    -1.731754     5.490488     0.391895
 C     0.064744     4.372074    -0.014698
 H     0.992649     4.087164     0.514499
 H     0.371732     5.037626    -0.838103
 C    -0.602443     3.118570    -0.569183
 H    -1.471491     3.419338    -1.181254
 H     0.075106     2.573386    -1.245002
 H    -2.738537     1.538140    -2.112090
 H    -3.556960     2.038138    -0.627232
 C    -4.220355     0.133169    -1.412739
 H    -3.758755    -0.809214    -1.748772
 H    -4.744651    -0.103644    -0.469684
 C    -5.259095     0.560870    -2.452620
 H    -4.712838     0.773087    -3.391618
 C    -6.230848    -0.581118    -2.725920
 H    -5.700653    -1.489309    -3.052162
 H    -6.957942    -0.314321    -3.508630
 H    -6.800119    -0.836930    -1.816376
 C    -6.004781     1.827217    -2.046923
 H    -6.758004     2.103691    -2.801005
 H    -5.328189     2.686634    -1.926781
 H    -6.532311     1.679340    -1.089062
 H    -3.369105     0.379450     1.544388
 H    -1.775719    -0.100873     2.131175
 C    -2.854191    -1.680857     1.100058
 H    -3.249761    -1.842225     0.087024
 H    -1.951839    -2.310655     1.144463
 C    -3.879741    -2.199172     2.109758
 H    -4.782391    -1.563622     2.019587
 C    -4.279019    -3.629364     1.766469
 H    -4.678405    -3.699304     0.742788
 H    -5.046563    -4.012145     2.457235
 H    -3.407616    -4.302310     1.826166
 C    -3.384115    -2.102090     3.548019
 H    -4.142306    -2.470140     4.256752
 H    -3.140256    -1.067241     3.833434
 H    -2.474974    -2.710182     3.687335
 H     0.555609     0.183385     2.107010
 C     2.563737    -0.143789     2.763700
 H     2.888636     0.879917     2.523890
 H     3.417014    -0.809208     2.541147
 C     2.233280    -0.231830     4.252396
 H     3.122366     0.028304     4.849721
 H     1.465755     0.526425     4.492984
 C     1.711044    -1.609804     4.638881
 H     1.448828    -1.635289     5.708937
 H     2.514317    -2.355618     4.497350
 C     0.511660    -1.997552     3.783332
 H    -0.328827    -1.314929     4.003034
 H     0.160970    -3.009974     4.040926
 C     0.840331    -1.924092     2.297067
 H     1.601357    -2.688035     2.059674
 H    -0.042113    -2.166623     1.688860
 H     2.511111    -2.626405     0.007848
 H     3.798178    -1.428730     0.263952
 C     3.185459    -1.708897    -1.818802
 H     2.221882    -1.841087    -2.339003
 H     3.586082    -0.739431    -2.169662
 C     4.147760    -2.818455    -2.243953
 H     3.728964    -3.773583    -1.874947
 C     4.219638    -2.896094    -3.764415
 H     3.222921    -3.056333    -4.203819
 H     4.872401    -3.718217    -4.096714
 H     4.623667    -1.959900    -4.185584
 C     5.537170    -2.646729    -1.639691
 H     6.216438    -3.449160    -1.967134
 H     5.515996    -2.662369    -0.539533
 H     5.982586    -1.686579    -1.952153
 H     1.913423     1.912123     0.500351
 H     2.136573     1.542649    -1.196055
 C     3.929128     1.307738    -0.018967
 H     4.252079     0.808286     0.906607
 H     4.428104     0.763998    -0.839713
 C     4.453550     2.747070     0.005435
 H     3.973911     3.256200     0.863945
 C     5.959716     2.755445     0.239032
 H     6.227300     2.220867     1.163940
 H     6.349844     3.781956     0.317870
 H     6.487415     2.262155    -0.594339
 C     4.091909     3.523756    -1.256103
 H     4.515286     4.539628    -1.229036
 H     3.003989     3.625821    -1.384750
 H     4.491390     3.020903    -2.153186
