 102
scf done:    -4333.169931
 C    -1.162136     0.925406    -3.451007
 H    -0.995548     0.433671    -4.416179
 H    -2.240373     1.025999    -3.264544
 C    -0.363418     2.163962    -3.211625
 H     0.280966     2.463890    -4.049414
 H    -0.956927     3.020871    -2.861481
 H     0.412156     2.034768    -2.344403
Co     0.009465     0.369753    -1.986304
 C    -2.548128     1.827003    -0.378468
 O    -3.079431    -0.538542    -1.211538
 O    -1.385060    -0.410926     0.719078
 C     1.687714    -1.038993     0.613057
 O     2.998429     0.665967    -1.055582
 O     1.288309     1.653204     0.614468
 P     1.467569     0.392161    -0.469318
 P    -1.692505     0.269753    -0.768929
 C     0.718285    -0.930952    -2.866878
 O     1.117562    -1.871856    -3.410598
 C    -3.932165     2.030246    -0.478753
 H    -4.567816     1.211814    -0.817834
 C    -1.741805     2.882073     0.058651
 H    -0.662134     2.730182     0.144398
 C    -4.489232     3.253574    -0.142088
 H    -5.564043     3.429436    -0.217144
 C    -2.292491     4.111155     0.414556
 H    -1.635940     4.907850     0.764949
 C    -3.676625     4.303705     0.312017
 O    -4.306554     5.451061     0.621191
 C    -3.550902     6.536449     1.083016
 H    -2.812414     6.870809     0.333347
 H    -4.258175     7.353478     1.273087
 H    -3.020574     6.297499     2.021524
 C    -3.206785    -1.874577    -1.482779
 C    -2.281074    -2.564644    -2.260425
 H    -1.423471    -2.027117    -2.658371
 C    -4.347128    -2.509903    -0.962369
 C    -5.346974    -1.737852    -0.158924
 H    -4.867148    -1.210762     0.679027
 H    -5.844592    -0.973234    -0.777424
 H    -6.120767    -2.403052     0.247195
 C    -2.462553    -3.923599    -2.507056
 H    -1.727264    -4.459846    -3.111310
 C    -4.503688    -3.872481    -1.228978
 H    -5.381258    -4.385292    -0.825550
 C    -3.572595    -4.583610    -1.986648
 H    -3.720839    -5.649496    -2.174089
 C    -2.293056    -0.841708     1.649735
 C    -3.051614     0.082735     2.372043
 H    -2.926800     1.146157     2.165982
 C    -2.388253    -2.221511     1.895892
 C    -1.560614    -3.220927     1.145816
 H    -2.187335    -3.806457     0.454811
 H    -0.776170    -2.731802     0.556705
 H    -1.081804    -3.924569     1.843327
 C    -3.951158    -0.361423     3.336623
 H    -4.548293     0.363309     3.894819
 C    -3.297888    -2.634858     2.876811
 H    -3.389834    -3.705187     3.082077
 C    -4.079292    -1.727135     3.586503
 H    -4.782502    -2.085389     4.341829
 C     1.223452    -1.039811     1.935337
 H     0.745393    -0.146062     2.336977
 C     2.223702    -2.216852     0.086116
 H     2.570669    -2.251810    -0.949230
 C     1.320005    -2.177422     2.717168
 H     0.945505    -2.195644     3.742046
 C     2.324812    -3.368192     0.862234
 H     2.750390    -4.269244     0.421456
 C     1.869452    -3.353329     2.186111
 O     1.896086    -4.418140     3.007557
 C     2.409951    -5.630738     2.528643
 H     3.469760    -5.538537     2.233450
 H     2.332033    -6.351645     3.352082
 H     1.831766    -6.008010     1.667091
 C     4.205465     0.088081    -0.749698
 C     4.698354     0.043211     0.551742
 H     4.112589     0.469159     1.365071
 C     4.940538    -0.425812    -1.830425
 C     4.390680    -0.360875    -3.222128
 H     3.537117    -1.044432    -3.353228
 H     4.017131     0.647255    -3.455342
 H     5.158260    -0.632842    -3.959401
 C     5.938957    -0.538661     0.799910
 H     6.319895    -0.574291     1.823022
 C     6.186175    -0.995608    -1.551811
 H     6.774421    -1.397198    -2.381546
 C     6.685552    -1.062257    -0.252173
 H     7.660869    -1.516981    -0.064614
 C     2.275587     2.401179     1.205519
 C     2.647301     2.133593     2.522393
 H     2.171079     1.307847     3.050944
 C     2.841024     3.469717     0.490363
 C     2.394069     3.783814    -0.904346
 H     2.699802     2.991338    -1.604223
 H     1.297094     3.860053    -0.961169
 H     2.824321     4.733756    -1.248726
 C     3.622971     2.910962     3.142206
 H     3.914294     2.694398     4.172438
 C     3.822024     4.228827     1.135526
 H     4.279598     5.060350     0.592744
 C     4.220147     3.956181     2.442822
 H     4.990790     4.567971     2.916790
