  94
scf done:    -4104.125275
 C     0.942973     0.579029     3.136588
 H     0.670921     0.088350     4.079871
 H     2.025663     0.736011     3.086806
 C     0.123531     1.776363     2.794370
 H    -0.655462     2.030800     3.528591
 H     0.718133     2.672997     2.560241
 H    -0.497757     1.632090     1.816749
Co     0.024774    -0.021399     1.534904
 C     1.265481     1.288124    -1.380723
 C     3.160816     1.125626     0.752413
 C     2.426057    -1.251490    -0.627561
 C    -1.585508    -1.765659    -0.785780
 C    -3.285728    -0.505948     1.181541
 C    -2.319488     1.054148    -0.923508
 P    -1.724449    -0.255559     0.239039
 P     1.668273     0.262700     0.096624
 C    -0.137093    -1.557142     2.249760
 O    -0.148586    -2.614279     2.728748
 C     1.486676     0.894315    -2.705157
 C     0.597014     2.498815    -1.148566
 C     0.429732     2.911717    -3.519492
 C     0.204148     3.315549    -2.204767
 C     1.061420     1.694365    -3.764957
 H     1.986793    -0.052636    -2.913241
 H     1.230692     1.362847    -4.792717
 H     0.098149     3.538147    -4.350897
 H    -0.313251     4.255252    -2.000547
 H     0.363434     2.791459    -0.121084
 C     3.506313     2.438805     0.438978
 H     2.918936     2.980513    -0.304920
 C     3.950831     0.432272     1.694367
 O     3.581565    -0.837173     1.942280
 C     4.176673    -1.556101     2.981388
 H     5.245184    -1.754970     2.784564
 H     3.639683    -2.511067     3.041144
 H     4.080383    -1.028568     3.946698
 C     4.597567     3.067612     1.041520
 H     4.846870     4.097607     0.777045
 C     5.044952     1.055575     2.301208
 H     5.651637     0.516238     3.029445
 C     5.363179     2.373215     1.972071
 H     6.219726     2.853460     2.451576
 C     1.849067    -2.488615    -0.349295
 H     0.940249    -2.513995     0.251878
 C     3.624571    -1.221829    -1.374364
 O     4.157475    -0.009030    -1.612656
 C     5.406442     0.101193    -2.227321
 H     6.186233    -0.444113    -1.667522
 H     5.654202     1.170265    -2.232143
 H     5.389529    -0.268670    -3.268250
 C     2.413950    -3.678994    -0.805419
 H     1.931713    -4.631073    -0.576518
 C     4.198855    -2.412297    -1.832190
 H     5.123284    -2.392615    -2.410098
 C     3.588538    -3.634125    -1.546682
 H     4.048196    -4.556982    -1.910034
 C    -2.111993    -2.974976    -0.317341
 C    -0.799968    -1.775765    -1.945123
 C    -1.129100    -4.156357    -2.184561
 C    -0.587446    -2.959251    -2.647521
 C    -1.882219    -4.160931    -1.010787
 H    -2.699263    -2.990088     0.603788
 H    -2.296634    -5.097085    -0.628485
 H    -0.951902    -5.087324    -2.728426
 H     0.031450    -2.946447    -3.547740
 H    -0.326396    -0.856166    -2.292957
 C    -3.263816    -0.320086     2.562290
 H    -2.294772    -0.099480     3.019334
 C    -4.514531    -0.798838     0.552197
 O    -4.480614    -0.975370    -0.779029
 C    -5.661420    -1.233935    -1.480638
 H    -6.126135    -2.184281    -1.164583
 H    -5.382575    -1.308837    -2.539193
 H    -6.395103    -0.417756    -1.361081
 C    -4.424872    -0.416780     3.328373
 H    -4.384666    -0.270407     4.409641
 C    -5.682385    -0.900826     1.316288
 H    -6.635998    -1.133092     0.841484
 C    -5.629701    -0.707650     2.697067
 H    -6.550252    -0.791815     3.280442
 C    -2.533991     0.867099    -2.288034
 H    -2.334344    -0.109003    -2.729336
 C    -2.643451     2.310499    -0.370027
 O    -2.438168     2.444757     0.957308
 C    -2.879934     3.595089     1.619650
 H    -2.342093     4.497845     1.280537
 H    -2.673878     3.438345     2.685728
 H    -3.963959     3.748846     1.482520
 C    -3.027721     1.889833    -3.097547
 H    -3.176711     1.713208    -4.164733
 C    -3.155822     3.334853    -1.169755
 H    -3.409313     4.301647    -0.734367
 C    -3.338744     3.121821    -2.535255
 H    -3.733375     3.930003    -3.155950
