  98
scf done:    -4032.377262
 C    -0.993435     0.188798    -3.604679
 H    -0.769073    -0.440124    -4.475178
 H    -2.073973     0.356765    -3.525934
 C    -0.158581     1.418169    -3.491905
 H     0.588727     1.552179    -4.287467
 H    -0.725239     2.352625    -3.364357
 H     0.513835     1.400669    -2.535015
Co    -0.011186    -0.165449    -1.959167
 C    -1.788715     1.611789     0.378485
 C    -3.415865    -0.086391    -1.263131
 C    -1.856452    -1.280886     0.672071
 C     1.718560    -1.273087     0.791071
 C     3.288633    -0.176807    -1.321475
 C     1.866323     1.582961     0.377354
 P     1.634915    -0.006871    -0.524896
 P    -1.703434     0.054925    -0.589471
 C     0.428647    -1.722063    -2.508357
 O     0.639141    -2.813677    -2.841714
 C    -2.112910     2.798771    -0.304490
 H    -2.445161     2.749581    -1.345713
 C    -1.352350     1.729319     1.699092
 H    -1.082940     0.834589     2.261538
 C    -2.018502     4.036079     0.311636
 H    -2.273471     4.955845    -0.218593
 C    -1.243216     2.967555     2.331995
 H    -0.880953     3.006428     3.359146
 C    -1.569214     4.133203     1.636822
 O    -1.465988     5.378870     2.146378
 C    -1.095811     5.521166     3.489230
 H    -0.086092     5.119276     3.682949
 H    -1.096211     6.597398     3.704357
 H    -1.811629     5.020737     4.165173
 C    -3.649503    -1.109481    -2.192478
 H    -2.809669    -1.721935    -2.532440
 C    -4.501055     0.680788    -0.833870
 H    -4.354697     1.472156    -0.095382
 C    -4.928799    -1.351216    -2.676848
 H    -5.085746    -2.158875    -3.397744
 C    -5.781362     0.439934    -1.331900
 H    -6.616138     1.054054    -0.981771
 C    -6.019969    -0.575580    -2.261530
 C    -7.392990    -0.824306    -2.813772
 H    -8.162911    -0.292718    -2.236823
 H    -7.466469    -0.483644    -3.859920
 H    -7.639850    -1.897061    -2.806459
 C    -2.644512    -1.158907     1.821965
 H    -3.185570    -0.230312     2.018771
 C    -1.243864    -2.511040     0.414581
 H    -0.647533    -2.634845    -0.489418
 C    -2.752076    -2.214944     2.723260
 H    -3.355302    -2.090715     3.627269
 C    -1.381985    -3.572001     1.301811
 H    -0.888167    -4.521325     1.077189
 C    -2.110353    -3.436192     2.488026
 C    -2.159931    -4.554882     3.485758
 H    -2.345680    -5.523035     2.995787
 H    -1.193347    -4.633695     4.010879
 H    -2.943955    -4.395662     4.239572
 C     1.178065    -1.060820     2.068169
 H     0.792793    -0.076173     2.335828
 C     2.193811    -2.549782     0.481392
 H     2.606480    -2.750416    -0.510557
 C     1.117765    -2.082855     3.000726
 H     0.683728    -1.922739     3.988982
 C     2.137595    -3.588937     1.409035
 H     2.511674    -4.572714     1.125267
 C     1.586359    -3.361337     2.674340
 O     1.451123    -4.308347     3.627172
 C     1.876618    -5.612163     3.344595
 H     2.958562    -5.653119     3.128231
 H     1.671249    -6.211990     4.240292
 H     1.327889    -6.046628     2.490235
 C     3.380464    -0.098071    -2.711074
 H     2.459852     0.003176    -3.291208
 C     4.466287    -0.342392    -0.580206
 H     4.420173    -0.424049     0.508155
 C     4.619039    -0.170193    -3.347445
 H     4.667562    -0.107011    -4.438070
 C     5.696897    -0.421276    -1.218803
 H     6.604218    -0.556252    -0.622701
 C     5.797308    -0.333058    -2.615646
 C     7.133915    -0.423122    -3.291540
 H     7.609708    -1.398847    -3.102443
 H     7.045223    -0.297325    -4.379531
 H     7.823157     0.349421    -2.915321
 C     2.652930     1.712515     1.529269
 H     3.117110     0.832315     1.979142
 C     1.281827     2.735988    -0.152696
 H     0.633864     2.656211    -1.025953
 C     2.841889     2.956318     2.124381
 H     3.453176     3.029575     3.028604
 C     1.485723     3.979649     0.434834
 H     1.003403     4.860665     0.003978
 C     2.268471     4.114460     1.584863
 C     2.500303     5.461659     2.203664
 H     1.653817     6.137489     2.013746
 H     2.652516     5.389472     3.290813
 H     3.400811     5.938122     1.780954
