  86
scf done:    -3201.470191
 C     1.300302     0.309162     2.820120
 H     0.985899    -0.042962     3.810751
 H     2.340405     0.006241     2.635454
 C     1.023165     1.751841     2.563550
 H     0.423738     2.250566     3.336447
 H     1.912372     2.364289     2.348753
 H     0.403715     1.895584     1.585190
Co     0.022637     0.197966     1.346029
 C     2.758302     0.139992    -0.907776
 C     2.459233    -2.123983     0.848995
 C     0.733061    -1.775098    -1.408762
 C    -2.598184    -0.279042    -0.972261
 C    -2.694303     2.122100     0.599911
 C    -0.776656     1.868664    -1.544000
 P    -1.459884     0.922181    -0.102920
 P     1.431843    -0.815291     0.019953
 C    -1.033688    -0.704760     2.347254
 O    -1.648658    -1.388603     3.055116
 H     2.172159     0.703579    -1.660282
 C     3.820697    -0.670791    -1.652085
 H     3.360991    -1.402189    -2.334381
 H     4.410807    -1.252545    -0.922655
 C     4.764632     0.237508    -2.437790
 H     5.528423    -0.367308    -2.953669
 H     4.191470     0.754604    -3.229009
 C     5.425214     1.274239    -1.536988
 H     6.070124     1.944780    -2.127953
 H     6.088540     0.757966    -0.819353
 C     4.383622     2.075184    -0.765404
 H     3.795720     2.687353    -1.473273
 H     4.872745     2.782317    -0.075659
 C     3.433388     1.164114     0.004290
 H     3.997533     0.633264     0.792907
 H     2.669360     1.758375     0.523637
 H     2.852083    -2.800743     0.070210
 H     3.337966    -1.613327     1.280130
 C     1.757444    -2.918181     1.943213
 H     0.844341    -3.388947     1.546370
 H     1.402534    -2.221846     2.715942
 C     2.657359    -3.977679     2.559294
 H     2.992449    -4.713208     1.809469
 H     3.560776    -3.525807     3.000790
 H     2.138507    -4.529437     3.358035
 H     0.190483    -1.048163    -2.038035
 H     1.561899    -2.154948    -2.028228
 C    -0.185683    -2.928764    -1.033267
 H    -0.943770    -2.573751    -0.316950
 H     0.394429    -3.694683    -0.494409
 C    -0.848672    -3.568876    -2.243217
 H    -1.466605    -2.842607    -2.796332
 H    -0.098365    -3.961276    -2.948340
 H    -1.501955    -4.405229    -1.951081
 H    -1.908178    -0.920474    -1.546732
 C    -3.577392     0.357351    -1.963290
 H    -3.042004     0.959915    -2.712306
 H    -4.249194     1.048503    -1.424662
 C    -4.422459    -0.698233    -2.672338
 H    -5.126583    -0.209677    -3.365555
 H    -3.762789    -1.330438    -3.294454
 C    -5.169440    -1.578658    -1.679207
 H    -5.749518    -2.351843    -2.208618
 H    -5.902798    -0.961587    -1.128644
 C    -4.205136    -2.216719    -0.688393
 H    -3.546735    -2.921901    -1.225513
 H    -4.753007    -2.813301     0.058507
 C    -3.344434    -1.175052     0.019704
 H    -3.991473    -0.552899     0.663716
 H    -2.637192    -1.671039     0.697320
 H    -3.071185     2.762562    -0.215888
 H    -3.549319     1.513347     0.939382
 C    -2.204932     2.966457     1.767355
 H    -1.334396     3.570577     1.460313
 H    -1.835075     2.287508     2.551554
 C    -3.287042     3.877669     2.323651
 H    -3.652461     4.583807     1.560405
 H    -4.154026     3.295383     2.675095
 H    -2.916826     4.469035     3.174945
 H    -0.288249     1.124802    -2.198146
 H    -1.602706     2.307174    -2.126974
 C     0.224112     2.949166    -1.161081
 H     0.988887     2.502940    -0.506459
 H    -0.279113     3.721358    -0.554891
 C     0.887924     3.597524    -2.365292
 H     1.437347     2.852279    -2.963484
 H     0.147133     4.070440    -3.029755
 H     1.606742     4.373166    -2.059962
