  78
scf done:    -3844.719613
 C     1.009781     0.095245     3.423636
 H     0.715011    -0.494689     4.300183
 H     2.102235     0.130238     3.339314
 C     0.327034     1.413227     3.299720
 H    -0.395986     1.643791     4.095362
 H     1.000107     2.271949     3.158590
 H    -0.346819     1.467543     2.344150
Co    -0.017199    -0.156648     1.786005
 C     1.942133     1.403903    -0.549389
 C     3.360336    -0.496576     1.070390
 C     1.682784    -1.477546    -0.869944
 C    -1.909632    -1.098402    -0.903183
 C    -3.309364     0.207160     1.212399
 C    -1.729335     1.764653    -0.551001
 P    -1.660658     0.177564     0.384924
 P     1.673225    -0.143085     0.404780
 C    -0.608579    -1.659488     2.346078
 O    -0.925887    -2.721550     2.686444
 C     1.504745     1.587424    -1.866691
 H     1.112988     0.740355    -2.431496
 C     2.426811     2.523324     0.146692
 H     2.759503     2.414624     1.182933
 C     1.556452     2.836580    -2.480424
 H     1.202861     2.985459    -3.501950
 C     2.494720     3.775528    -0.454384
 H     2.876460     4.647466     0.080137
 C     2.050758     3.916910    -1.764645
 F     2.086442     5.120070    -2.336174
 C     3.458973    -1.539925     2.000706
 C     4.530212     0.131090     0.631019
 C     5.861830    -1.304111     2.049748
 C     5.773027    -0.267581     1.123207
 C     4.700368    -1.943834     2.483106
 H     2.546630    -2.035355     2.344114
 H     4.760503    -2.760704     3.206329
 H     6.836379    -1.615933     2.433118
 H     6.678648     0.234033     0.772989
 H     4.478069     0.934365    -0.107049
 C     0.940682    -2.635239    -0.618879
 C     2.502956    -1.430081    -2.004934
 C     1.786431    -3.648212    -2.641390
 C     2.541548    -2.502089    -2.892982
 C     0.998212    -3.716866    -1.495297
 H     0.313877    -2.687889     0.271648
 H     0.410819    -4.613354    -1.284674
 H     1.820202    -4.491005    -3.336031
 H     3.178661    -2.448558    -3.779328
 H     3.128745    -0.554191    -2.191999
 C    -2.532674    -2.303576    -0.552916
 H    -2.946830    -2.432337     0.449921
 C    -1.367717    -0.970092    -2.187542
 H    -0.865638    -0.045598    -2.475395
 C    -2.623309    -3.350359    -1.465082
 H    -3.103530    -4.294926    -1.203582
 C    -1.456192    -2.005778    -3.111506
 H    -1.027358    -1.918819    -4.110857
 C    -2.080990    -3.186869    -2.734222
 F    -2.152912    -4.191190    -3.605349
 C    -3.356008     0.292518     2.605797
 C    -4.508793     0.179737     0.489382
 C    -5.768594     0.335439     2.544759
 C    -5.730650     0.240629     1.152330
 C    -4.580256     0.361453     3.270140
 H    -2.414722     0.284091     3.160997
 H    -4.603038     0.426508     4.360559
 H    -6.729276     0.382819     3.063335
 H    -6.660817     0.211977     0.579671
 H    -4.490816     0.096893    -0.599544
 C    -1.016142     2.857482    -0.049003
 C    -2.513396     1.944293    -1.698962
 C    -1.862444     4.269058    -1.813243
 C    -2.572813     3.185096    -2.328625
 C    -1.087928     4.102962    -0.667923
 H    -0.378003     2.725444     0.825525
 H    -0.517926     4.942084    -0.263357
 H    -1.908733     5.241848    -2.308395
 H    -3.183185     3.306584    -3.226820
 H    -3.077673     1.107557    -2.115607
