 106
scf done:    -4111.362788
 C    -0.799712    -0.404457    -3.092962
 H    -0.532479    -1.175237    -3.827020
 H    -1.867270    -0.161258    -3.165000
 C     0.124517     0.761257    -3.051960
 H     1.002695     0.685095    -3.709320
 H    -0.365657     1.736746    -3.192445
 H     0.607192     0.917021    -1.996093
Co    -0.040622    -0.564528    -1.308868
 C    -1.694688     1.888593     0.632690
 C    -3.359836     0.171630    -1.131839
 C    -2.231917    -0.871138     1.292632
 C     2.286296    -1.698964     1.178351
 C     3.256195    -0.347495    -1.172905
 C     1.878745     1.135947     0.967659
 P     1.772476    -0.385804    -0.061657
 P    -1.796769     0.191041    -0.156448
 C    -0.130277    -2.241206    -1.551085
 O    -0.326159    -3.368946    -1.760180
 H    -0.835998     1.729303     1.312401
 C    -2.866137     2.364045     1.492688
 H    -3.047039     1.636578     2.296104
 H    -3.793304     2.393854     0.899086
 C    -2.604693     3.741725     2.093958
 H    -3.480468     4.064952     2.680774
 H    -1.758842     3.676046     2.802664
 C    -2.267953     4.765717     1.018733
 H    -2.094548     5.758153     1.466452
 H    -3.130562     4.877706     0.335786
 C    -1.043104     4.316505     0.234100
 H    -0.181012     4.280459     0.919195
 H    -0.790821     5.048425    -0.552237
 C    -1.235420     2.938000    -0.390007
 H    -1.958800     3.023428    -1.216622
 H    -0.298471     2.592425    -0.849466
 C    -4.038311     1.305944    -1.575083
 H    -3.695057     2.292587    -1.269346
 C    -3.847212    -1.088214    -1.550225
 O    -3.170778    -2.155227    -1.096152
 C    -3.510130    -3.442490    -1.524690
 H    -4.518644    -3.732524    -1.180040
 H    -2.762686    -4.116258    -1.090751
 H    -3.463742    -3.528000    -2.623846
 C    -5.164404     1.220430    -2.397795
 H    -5.669871     2.131852    -2.724173
 C    -4.973542    -1.183721    -2.371315
 H    -5.342609    -2.160309    -2.685417
 C    -5.629836    -0.027012    -2.793134
 H    -6.508384    -0.112331    -3.437393
 C    -1.229027    -1.707646     1.776011
 H    -0.285923    -1.697639     1.230675
 C    -3.502624    -0.945452     1.904458
 O    -4.479128    -0.177787     1.388041
 C    -5.787251    -0.287134     1.863365
 H    -6.171336    -1.318124     1.770678
 H    -6.398278     0.376566     1.238194
 H    -5.873132     0.031624     2.917706
 C    -1.420313    -2.557629     2.864252
 H    -0.605771    -3.195904     3.214047
 C    -3.709781    -1.802494     2.992141
 H    -4.688991    -1.857095     3.468554
 C    -2.668733    -2.595888     3.473798
 H    -2.850681    -3.257455     4.324539
 H     1.536616    -1.620270     1.984867
 C     3.668938    -1.496378     1.798743
 H     3.761358    -0.488146     2.225389
 H     4.427529    -1.567633     1.001305
 C     3.960569    -2.559038     2.853692
 H     4.963160    -2.394724     3.281897
 H     3.245300    -2.451114     3.689982
 C     3.849855    -3.962313     2.271729
 H     4.031709    -4.722473     3.049090
 H     4.638899    -4.098978     1.510151
 C     2.488168    -4.174969     1.624041
 H     1.708437    -4.157610     2.407842
 H     2.430217    -5.171055     1.156497
 C     2.166000    -3.103076     0.586408
 H     2.855719    -3.194311    -0.271577
 H     1.157559    -3.272461     0.190130
 C     3.124508    -1.031392    -2.383112
 H     2.154499    -1.492318    -2.591625
 C     4.486370     0.292886    -0.903960
 O     4.593247     0.958540     0.261353
 C     5.768286     1.644328     0.575510
 H     6.632895     0.962676     0.662221
 H     5.593400     2.127297     1.545488
 H     6.003745     2.421770    -0.172941
 C     4.168324    -1.114319    -3.305231
 H     4.031753    -1.665823    -4.237583
 C     5.531269     0.226630    -1.831738
 H     6.480268     0.722490    -1.626553
 C     5.370942    -0.478786    -3.024447
 H     6.200610    -0.522779    -3.734559
 C     1.628218     1.115898     2.340249
 H     1.381701     0.172950     2.831331
 C     2.138731     2.382839     0.363644
 O     2.277251     2.365941    -0.978047
 C     2.587944     3.544728    -1.663029
 H     1.800987     4.308870    -1.537451
 H     2.662017     3.276330    -2.724289
 H     3.553436     3.964972    -1.331156
 C     1.689825     2.276830     3.114375
 H     1.490574     2.226900     4.186644
 C     2.244615     3.541048     1.134328
 H     2.478713     4.496977     0.665435
 C     2.021732     3.483506     2.511511
 H     2.094236     4.397676     3.105401
