  62
scf done:    -3235.485984
 C    -3.725094     1.120095    -0.222684
 H    -4.615887     0.744753     0.295487
 H    -3.664367     2.209690    -0.103832
 C    -3.570654     0.626369    -1.624595
 H    -4.352553    -0.069403    -1.959332
 H    -3.444800     1.422016    -2.374643
 H    -2.581351     0.017011    -1.770332
Co    -2.121798     0.027994    -0.080171
 C     1.015262     1.561800    -0.425230
 C    -1.157483     3.304302    -0.760297
 C    -0.565453     2.238101     1.860400
 C     0.797180    -1.658067     0.429834
 C    -1.500723    -3.271568    -0.068148
 C    -0.268420    -1.867746    -2.273401
 P    -0.777931    -1.626377    -0.509383
 P    -0.744065     1.705659     0.098671
 C    -2.691662    -0.667636     1.360535
 O    -3.017681    -1.057390     2.406416
 C     2.106348     1.618640     0.449187
 H     1.950368     1.762380     1.518926
 C     1.273462     1.360216    -1.789185
 H     0.436774     1.304863    -2.492331
 C     3.412280     1.473148    -0.015060
 H     4.264748     1.498815     0.666201
 C     2.570743     1.221352    -2.272178
 H     2.776971     1.068467    -3.333356
 C     3.628317     1.274411    -1.370556
 F     4.874184     1.117853    -1.818748
 H    -2.216253     3.514632    -0.541263
 C    -0.287460     4.507094    -0.440497
 H     0.777585     4.294558    -0.621546
 H    -0.392523     4.818121     0.609923
 H    -1.122409     3.071198    -1.837759
 H    -0.566729     5.370989    -1.063989
 H     0.187652     3.039384     1.935662
 C    -1.880671     2.671529     2.487479
 H    -2.631522     1.872168     2.420649
 H    -2.295453     3.562518     1.990382
 H    -0.162820     1.362051     2.394743
 H    -1.739819     2.923289     3.549571
 C     0.716820    -1.511885     1.823567
 H    -0.259282    -1.412560     2.305939
 C     2.062764    -1.756931    -0.157394
 H     2.168698    -1.837418    -1.239605
 C     1.864045    -1.478309     2.609950
 H     1.810972    -1.365765     3.694414
 C     3.220214    -1.721229     0.616639
 H     4.210916    -1.779999     0.162529
 C     3.105279    -1.581913     1.992111
 F     4.209256    -1.529710     2.736135
 H    -1.652269    -3.240016     1.022538
 C    -2.824721    -3.511949    -0.775192
 H    -2.695264    -3.629275    -1.862890
 H    -3.498946    -2.657040    -0.608852
 H    -0.768798    -4.069925    -0.268442
 H    -3.318319    -4.420889    -0.399851
 H     0.459410    -1.068426    -2.484416
 C     0.265339    -3.232104    -2.686570
 H    -0.514497    -4.005225    -2.630134
 H     1.101226    -3.566383    -2.055015
 H    -1.161434    -1.613099    -2.867058
 H     0.624698    -3.207046    -3.727137
