  98
scf done:    -3508.489743
 C     0.681425     3.203432    -1.035965
 H     0.585264     4.179866    -0.545582
 H     1.656553     3.133867    -1.534825
 C    -0.481851     2.824171    -1.893710
 H    -1.316133     3.539658    -1.891182
 H    -0.222418     2.576856    -2.934870
 H    -0.977589     1.827411    -1.538504
Co    -0.019505     1.660915    -0.080424
 C     1.065632    -1.105867    -1.769073
 C     3.083407     0.889886    -1.419071
 C     2.237946    -0.670734     0.832176
 C    -1.072122    -1.035322     1.749540
 C    -3.003696     1.030895     1.348237
 C    -2.318143    -0.716270    -0.850174
 P    -1.551661     0.242008     0.524316
 P     1.547447     0.242328    -0.612857
 C     0.043341     2.461088     1.421832
 O     0.173828     2.952386     2.466955
 C     0.896332    -2.442138    -1.381844
 C     0.671723    -0.739403    -3.066411
 C    -0.053521    -2.995311    -3.537894
 C     0.125616    -1.671031    -3.943598
 C     0.336801    -3.375621    -2.256000
 H     1.181764    -2.763270    -0.379078
 H     0.206254    -4.410429    -1.928638
 H    -0.495038    -3.725563    -4.219911
 H    -0.174686    -1.360851    -4.947621
 H     0.770868     0.302199    -3.385254
 H     2.765392     1.421999    -2.331874
 H     3.708949     0.044830    -1.745185
 C     3.837159     1.840959    -0.496224
 H     3.106980     2.482412     0.025271
 H     4.348320     1.262644     0.294013
 C     4.867437     2.727615    -1.197853
 H     4.327226     3.306803    -1.971233
 C     5.471409     3.719119    -0.210795
 H     4.692232     4.330739     0.269723
 H     6.180431     4.400512    -0.706337
 H     6.019848     3.191637     0.587719
 C     5.953254     1.914109    -1.893084
 H     6.687671     2.569225    -2.387111
 H     5.539495     1.242908    -2.660750
 H     6.500340     1.291571    -1.164538
 H     1.402439    -1.256792     1.244000
 H     2.430265     0.107884     1.586472
 C     3.459183    -1.554536     0.609478
 H     3.376725    -2.083071    -0.355064
 H     4.366082    -0.929838     0.527963
 C     3.672578    -2.594425     1.713352
 H     2.764094    -3.227103     1.744539
 C     4.859509    -3.490297     1.381450
 H     4.733925    -3.979728     0.402772
 H     4.994284    -4.278563     2.138526
 H     5.793314    -2.904684     1.342415
 C     3.831269    -1.953209     3.087087
 H     3.997078    -2.716376     3.863537
 H     2.939440    -1.377302     3.374957
 H     4.696686    -1.268963     3.102564
 C    -0.602423    -0.601136     2.999109
 C    -1.030992    -2.403933     1.456473
 C    -0.057523    -2.872296     3.619961
 C    -0.522900    -3.314484     2.383771
 C    -0.106415    -1.511751     3.927229
 H    -0.590427     0.465456     3.237468
 H     0.260487    -1.153969     4.892193
 H     0.345317    -3.585110     4.343208
 H    -0.490509    -4.378015     2.134204
 H    -1.375660    -2.771219     0.488919
 H    -2.624498     1.456796     2.291925
 H    -3.743002     0.258266     1.610172
 C    -3.590301     2.136175     0.483445
 H    -2.757575     2.790016     0.171276
 H    -4.008984     1.706800    -0.446421
 C    -4.668946     2.983346     1.159996
 H    -4.226751     3.396753     2.085928
 C    -5.056530     4.153569     0.263676
 H    -4.180347     4.769770     0.008710
 H    -5.798720     4.805654     0.749718
 H    -5.498207     3.793903    -0.681059
 C    -5.893456     2.161891     1.547550
 H    -6.661463     2.792023     2.022396
 H    -5.645221     1.356130     2.254626
 H    -6.349475     1.697164     0.656530
 H    -1.527914    -1.387493    -1.223706
 H    -2.469389     0.013551    -1.661014
 C    -3.602056    -1.482919    -0.559406
 H    -3.550119    -1.950384     0.438312
 H    -4.453400    -0.780305    -0.514523
 C    -3.909407    -2.573675    -1.589621
 H    -3.063050    -3.287499    -1.568893
 C    -5.173970    -3.330771    -1.203281
 H    -5.096128    -3.755185    -0.189984
 H    -5.377305    -4.157994    -1.900930
 H    -6.050708    -2.661815    -1.216847
 C    -4.006690    -2.020585    -3.006924
 H    -4.256069    -2.817102    -3.725094
 H    -3.060138    -1.566188    -3.335660
 H    -4.796042    -1.252568    -3.075073
