  98
scf done:    -4427.432645
 C     0.623204     3.570304    -1.074718
 H     0.601537     4.540290    -0.563369
 H     1.535386     3.489666    -1.679314
 C    -0.634641     3.224946    -1.802712
 H    -1.449960     3.954162    -1.696739
 H    -0.497084     2.991112    -2.869935
 H    -1.107748     2.231209    -1.408416
Co     0.003035     2.024941    -0.068800
 C     0.846162    -0.750354    -1.851854
 C     2.924312     1.218321    -1.771439
 C     2.339640    -0.319466     0.578071
 C    -0.864269    -0.674611     1.819926
 C    -2.822131     1.408054     1.678671
 C    -2.402909    -0.308564    -0.610744
 P    -1.481620     0.623379     0.682899
 P     1.491939     0.597454    -0.777134
 C     0.239952     2.803225     1.428222
 O     0.488619     3.274890     2.460525
 C     0.722494    -2.084335    -1.442405
 H     1.173028    -2.417749    -0.506937
 C     0.247116    -0.381026    -3.067409
 H     0.309978     0.656661    -3.407189
 C    -0.008606    -3.007423    -2.189801
 H    -0.117192    -4.039404    -1.850990
 C    -0.472661    -1.290978    -3.832215
 H    -0.946108    -0.989125    -4.768011
 C    -0.617171    -2.601937    -3.373980
Cl    -1.582830    -3.725279    -4.272781
 H     2.504224     1.754669    -2.639653
 H     3.488989     0.361335    -2.169206
 C     3.806819     2.155640    -0.954393
 H     3.162605     2.815254    -0.349132
 H     4.399962     1.568062    -0.231300
 C     4.760778     3.016373    -1.784684
 H     4.141175     3.605947    -2.487473
 C     5.506198     3.995869    -0.886258
 H     4.807958     4.626811    -0.314876
 H     6.162453     4.659455    -1.470543
 H     6.138721     3.457696    -0.160405
 C     5.732223     2.175941    -2.605789
 H     6.414082     2.812832    -3.190464
 H     5.211110     1.513343    -3.313174
 H     6.351517     1.542338    -1.948090
 H     1.548759    -0.887753     1.089500
 H     2.632169     0.460257     1.298178
 C     3.510328    -1.230548     0.226745
 H     3.318837    -1.751367    -0.726520
 H     4.419524    -0.628020     0.055048
 C     3.804459    -2.281191     1.302380
 H     2.882060    -2.879360     1.436813
 C     4.910865    -3.223631     0.845810
 H     4.658274    -3.710015    -0.109622
 H     5.096106    -4.014653     1.588895
 H     5.857126    -2.676129     0.700186
 C     4.137304    -1.651816     2.649935
 H     4.319848    -2.424591     3.411820
 H     3.317896    -1.017294     3.018522
 H     5.043080    -1.026120     2.577295
 C    -0.226293    -0.265926     3.001762
 H    -0.194646     0.793176     3.269598
 C    -0.851560    -2.036144     1.495485
 H    -1.334536    -2.392736     0.585141
 C     0.425716    -1.180087     3.821105
 H     0.934757    -0.853260     4.729153
 C    -0.190694    -2.961961     2.300968
 H    -0.167087    -4.019668     2.033096
 C     0.457803    -2.525624     3.453185
Cl     1.333621    -3.660497     4.423937
 H    -2.335744     1.815801     2.580507
 H    -3.533713     0.635326     2.008756
 C    -3.493555     2.531304     0.902782
 H    -2.696635     3.182704     0.503951
 H    -4.022805     2.118467     0.023234
 C    -4.476510     3.377932     1.712730
 H    -3.924093     3.774721     2.585192
 C    -4.955407     4.563637     0.883479
 H    -4.109473     5.176045     0.534514
 H    -5.628108     5.215046     1.462505
 H    -5.509577     4.220987    -0.006651
 C    -5.654656     2.561049     2.231383
 H    -6.355171     3.191001     2.801174
 H    -5.332999     1.743931     2.894503
 H    -6.216931     2.112195     1.394644
 H    -1.659212    -0.965824    -1.087948
 H    -2.647486     0.439165    -1.381468
 C    -3.641508    -1.095240    -0.201390
 H    -3.478013    -1.588665     0.771619
 H    -4.488960    -0.404168    -0.044506
 C    -4.045316    -2.160872    -1.225674
 H    -3.186198    -2.850798    -1.336313
 C    -5.233902    -2.967986    -0.719112
 H    -5.022068    -3.428681     0.258601
 H    -5.499829    -3.773291    -1.421032
 H    -6.121897    -2.325151    -0.598540
 C    -4.327634    -1.566296    -2.600476
 H    -4.607393    -2.351621    -3.318579
 H    -3.447975    -1.049965    -3.012583
 H    -5.157347    -0.840573    -2.551725
