  90
scf done:    -4722.421742
 C     1.102278     0.037469     3.548304
 H     0.726850    -0.448418     4.457286
 H     2.180616    -0.130055     3.444487
 C     0.666430     1.451025     3.370198
 H     0.011399     1.842835     4.161525
 H     1.481644     2.165817     3.182777
 H    -0.001997     1.584099     2.419717
Co     0.009446    -0.098134     1.940669
 C     2.100021     0.959467    -0.535507
 C     3.267845    -1.045375     1.155575
 C     1.351043    -1.868293    -0.637801
 C    -2.077995    -0.845752    -0.638484
 C    -3.156625     0.885391     1.355586
 C    -1.340995     1.965548    -0.517037
 P    -1.562911     0.465339     0.530796
 P     1.631789    -0.464135     0.526739
 C    -0.841400    -1.434015     2.581789
 O    -1.343376    -2.404446     2.972251
 C     1.636371     1.138961    -1.843448
 H     1.091472     0.337084    -2.341390
 C     2.794199     2.021788     0.065991
 H     3.155534     1.920382     1.093338
 C     1.856146     2.325873    -2.536574
 H     1.474779     2.458843    -3.549784
 C     3.040472     3.206494    -0.618509
 H     3.590421     4.022096    -0.146215
 C     2.561560     3.353398    -1.920099
Cl     2.824069     4.842047    -2.771076
 C     3.244290    -2.020387     2.158799
 H     2.286176    -2.336888     2.579141
 C     4.497076    -0.654713     0.615306
 H     4.527615     0.089168    -0.184683
 C     4.434982    -2.583889     2.609499
 H     4.411399    -3.348031     3.390338
 C     5.701661    -1.204187     1.066568
 C     7.015442    -0.761376     0.489422
 H     7.623768    -1.622003     0.170788
 H     6.872055    -0.105904    -0.381065
 H     7.608548    -0.204444     1.233136
 C     5.653371    -2.175609     2.073261
 H     6.583894    -2.620426     2.437552
 C     2.049693    -2.023940    -1.839891
 H     2.769578    -1.269776    -2.165185
 C     0.491636    -2.886854    -0.215267
 H    -0.043144    -2.771989     0.727994
 C     1.837551    -3.158470    -2.620946
 H     2.370104    -3.269986    -3.568994
 C     0.301965    -4.049584    -0.966291
 C    -0.582779    -5.152396    -0.463868
 H     0.015655    -6.032781    -0.177541
 H    -1.152889    -4.832067     0.418957
 H    -1.294490    -5.477533    -1.237603
 C     0.969216    -4.159868    -2.191732
 H     0.813714    -5.047314    -2.811708
 C    -2.945197    -1.849576    -0.189062
 H    -3.387238    -1.783009     0.807831
 C    -1.513699    -0.970317    -1.912724
 H    -0.825663    -0.209766    -2.280124
 C    -3.246852    -2.944605    -0.992767
 H    -3.918079    -3.728343    -0.638520
 C    -1.807864    -2.057009    -2.728265
 H    -1.352849    -2.155067    -3.714401
 C    -2.672613    -3.041387    -2.258655
Cl    -3.013059    -4.420642    -3.252556
 C    -3.194500     0.982505     2.745848
 H    -2.287481     0.764821     3.314902
 C    -4.317521     1.140451     0.614545
 H    -4.292218     1.063748    -0.475796
 C    -4.384521     1.334874     3.384050
 H    -4.414995     1.409762     4.473778
 C    -5.516200     1.486677     1.238373
 C    -6.760397     1.750248     0.440782
 H    -7.144168     2.766008     0.625890
 H    -6.575341     1.650897    -0.637778
 H    -7.563807     1.046826     0.711732
 C    -5.530955     1.582541     2.638559
 H    -6.460796     1.853778     3.146975
 C    -1.970503     2.158780    -1.751490
 H    -2.595280     1.376012    -2.185493
 C    -0.562767     3.001712     0.010298
 H    -0.052418     2.854090     0.963917
 C    -1.794841     3.357782    -2.440887
 H    -2.275336     3.496883    -3.412626
 C    -0.408313     4.222581    -0.648789
 C     0.383173     5.338596    -0.034326
 H    -0.276822     6.172973     0.253777
 H     0.913123     5.003059     0.867669
 H     1.125370     5.736373    -0.742671
 C    -1.022496     4.379766    -1.897312
 H    -0.891403     5.315549    -2.447427
