 102
scf done:    -4158.995550
 C    -0.273091     1.853673    -3.175149
 H    -0.088793     1.694471    -4.244696
 H    -1.285809     2.250246    -3.036114
 C     0.786202     2.630008    -2.462474
 H     1.595219     3.007108    -3.104953
 H     0.401320     3.446849    -1.834181
 H     1.374580     1.970049    -1.705690
Co     0.410029     0.518263    -1.933853
 C    -2.126811     2.154305    -0.308458
 C    -2.747231    -0.312283    -1.782876
 C    -1.328827    -0.382803     0.857475
 C     1.508663    -2.318674    -0.359631
 C     3.477809    -0.505413    -1.527640
 C     2.241694    -0.067504     1.124058
 P     1.823595    -0.519782    -0.634819
 P    -1.424019     0.516019    -0.758969
 C     0.632650    -0.532449    -3.266561
 O     0.677515    -1.231822    -4.190247
 C    -1.784365     2.756916     0.913811
 H    -1.223672     2.200542     1.666384
 C    -2.866573     2.919275    -1.223062
 H    -3.167353     2.494209    -2.181543
 C    -2.156425     4.062778     1.212875
 H    -1.893435     4.523300     2.166831
 C    -3.248763     4.228934    -0.939326
 H    -3.828057     4.819841    -1.650986
 C    -2.884851     4.788281     0.277296
 F    -3.245426     6.038903     0.557209
 H    -2.857856     0.362136    -2.645975
 H    -2.230930    -1.193037    -2.188222
 C    -4.079843    -0.674813    -1.198470
 C    -5.116032     0.265456    -1.166270
 H    -4.946475     1.260173    -1.582037
 C    -4.315991    -1.967259    -0.683798
 C    -3.264784    -3.036049    -0.741454
 H    -2.326166    -2.719621    -0.266803
 H    -3.022992    -3.308002    -1.783033
 H    -3.601321    -3.946175    -0.226945
 C    -6.354861    -0.034858    -0.607685
 H    -7.143543     0.721096    -0.591878
 C    -5.563740    -2.253066    -0.123625
 H    -5.738680    -3.250081     0.288972
 C    -6.577945    -1.300717    -0.074563
 H    -7.541702    -1.551289     0.374828
 H    -0.777555    -1.294054     0.585489
 H    -0.591655     0.204828     1.433833
 C    -2.496330    -0.740610     1.740771
 C    -3.637536     0.059891     1.839715
 H    -3.712676     0.962685     1.235436
 C    -2.410710    -1.911577     2.525997
 C    -1.187146    -2.784719     2.508584
 H    -0.283148    -2.229570     2.807683
 H    -0.978922    -3.202346     1.509895
 H    -1.300520    -3.630429     3.200435
 C    -4.696700    -0.287682     2.672082
 H    -5.582097     0.350014     2.713535
 C    -3.488127    -2.250398     3.351581
 H    -3.423980    -3.161763     3.952828
 C    -4.626722    -1.453464     3.428030
 H    -5.455187    -1.743806     4.078539
 C     0.503222    -2.945587    -1.106583
 H    -0.068473    -2.351737    -1.821188
 C     2.213968    -3.089577     0.577457
 H     2.999645    -2.642337     1.187735
 C     0.213314    -4.297509    -0.944121
 H    -0.571269    -4.786703    -1.523947
 C     1.934493    -4.441359     0.755374
 H     2.478014    -5.046369     1.483333
 C     0.936038    -5.030498    -0.012250
 F     0.664642    -6.320591     0.156591
 H     3.428939    -1.395287    -2.174152
 H     3.404954     0.359020    -2.199029
 C     4.748130    -0.474414    -0.739747
 C     5.313888    -1.665674    -0.267135
 H     4.818809    -2.612634    -0.497971
 C     5.404488     0.749674    -0.483184
 C     4.862368     2.053204    -0.994238
 H     3.826839     2.226561    -0.665070
 H     4.866495     2.084815    -2.096483
 H     5.466255     2.896143    -0.632947
 C     6.500903    -1.667490     0.461483
 H     6.924228    -2.610264     0.815887
 C     6.603259     0.727352     0.238277
 H     7.115885     1.673210     0.433066
 C     7.150790    -0.461719     0.714198
 H     8.086921    -0.445415     1.277172
 H     1.410063    -0.476705     1.722241
 H     3.128562    -0.654301     1.393169
 C     2.474774     1.377323     1.464631
 C     1.626769     2.370771     0.966673
 H     0.807470     2.074450     0.309935
 C     3.526592     1.742671     2.332710
 C     4.404415     0.713833     2.984813
 H     4.915994     0.075432     2.249321
 H     3.819428     0.052933     3.645339
 H     5.179527     1.193913     3.597422
 C     1.824180     3.716707     1.264299
 H     1.143370     4.467888     0.856667
 C     3.719489     3.100006     2.611507
 H     4.540448     3.387598     3.274160
 C     2.889227     4.085259     2.080361
 H     3.068299     5.136631     2.317751
