  90
scf done:    -4001.863466
 C    -0.891536     0.242503    -3.471276
 H    -0.721997    -0.417430    -4.331065
 H    -1.951121     0.516423    -3.406319
 C     0.058882     1.384906    -3.364117
 H     0.821714     1.435859    -4.154422
 H    -0.414172     2.371679    -3.249764
 H     0.721282     1.310190    -2.403285
Co     0.033859    -0.184881    -1.810069
 C    -1.628129     1.779891     0.461702
 C    -3.360556     0.169324    -1.160608
 C    -1.919857    -1.098569     0.817023
 C     1.628050    -1.428100     0.956450
 C     3.317487    -0.448891    -1.118447
 C     1.986668     1.417167     0.555945
 P     1.668653    -0.149981    -0.355688
 P    -1.649931     0.193840    -0.469297
 C     0.331075    -1.783365    -2.337156
 O     0.440466    -2.893371    -2.655763
 C    -1.171727     1.896673     1.780386
 H    -0.950799     0.999220     2.358691
 C    -1.888581     2.961694    -0.250992
 H    -2.230843     2.904229    -1.288248
 C    -0.986905     3.140532     2.378269
 H    -0.615070     3.231517     3.400098
 C    -1.719202     4.212698     0.333730
 H    -1.922688     5.133754    -0.215723
 C    -1.260784     4.284126     1.644014
 F    -1.054976     5.482307     2.198144
 C    -3.651701    -0.833054    -2.095878
 H    -2.850003    -1.495174    -2.434341
 C    -4.399652     0.997978    -0.730415
 H    -4.211197     1.774008     0.014709
 C    -4.941251    -0.993289    -2.587468
 H    -5.143631    -1.786352    -3.313089
 C    -5.689418     0.838829    -1.235604
 H    -6.486942     1.500050    -0.884670
 C    -5.984834    -0.154661    -2.173128
 C    -7.367291    -0.313874    -2.734305
 H    -7.668848    -1.371968    -2.763579
 H    -8.110331     0.237461    -2.140939
 H    -7.419828     0.065495    -3.768365
 C    -2.678150    -0.889783     1.973740
 H    -3.120527     0.089393     2.171806
 C    -1.436594    -2.386845     0.563318
 H    -0.861835    -2.575517    -0.343514
 C    -2.883707    -1.925227     2.883155
 H    -3.460690    -1.734459     3.792592
 C    -1.673003    -3.423183     1.457655
 H    -1.277065    -4.418402     1.238012
 C    -2.375214    -3.207419     2.648816
 C    -2.548560    -4.319465     3.640385
 H    -3.038313    -5.192288     3.180686
 H    -1.568294    -4.658581     4.012430
 H    -3.152322    -4.005746     4.503368
 C     2.028953    -2.733318     0.642249
 H     2.450824    -2.951470    -0.341798
 C     1.071622    -1.182682     2.217552
 H     0.740824    -0.177430     2.479028
 C     1.883982    -3.766128     1.564172
 H     2.185651    -4.788105     1.328176
 C     0.926461    -2.202755     3.151360
 H     0.481744    -2.020767     4.130766
 C     1.329664    -3.485065     2.806504
 F     1.161785    -4.476694     3.684424
 C     3.431602    -0.457231    -2.508465
 H     2.526895    -0.333380    -3.108983
 C     4.473398    -0.634900    -0.348029
 H     4.409444    -0.642166     0.742556
 C     4.672340    -0.640409    -3.118163
 H     4.739411    -0.645325    -4.209555
 C     5.705233    -0.823647    -0.959829
 H     6.595277    -0.972923    -0.341701
 C     5.828730    -0.827503    -2.357952
 C     7.166821    -1.034450    -3.004102
 H     7.887978    -0.267902    -2.678813
 H     7.592320    -2.013326    -2.730962
 H     7.097203    -0.990846    -4.099776
 C     2.690378     1.493005     1.763156
 H     3.063478     0.585196     2.241858
 C     1.539686     2.611375    -0.020752
 H     0.966352     2.577944    -0.947784
 C     2.907000     2.721542     2.384161
 H     3.441589     2.752599     3.337711
 C     1.781389     3.835681     0.587381
 H     1.409148     4.749917     0.117696
 C     2.451625     3.914299     1.813557
 C     2.635037     5.238021     2.494064
 H     3.197151     5.939518     1.857538
 H     1.656991     5.701252     2.700499
 H     3.174600     5.135635     3.445763
