  82
scf done:    -5983.401572
 C     1.909478    -3.207761    -0.577067
 H     2.304463    -3.954685     0.121524
 H     1.247929    -3.695772    -1.306490
 C     2.923433    -2.283703    -1.166846
 H     3.956612    -2.463493    -0.840196
 H     2.877638    -2.206742    -2.262748
 H     2.763765    -1.168975    -0.844896
Co     1.390006    -1.487250     0.198270
 C    -0.196329    -1.768639    -2.744053
 O    -1.509365    -2.724916    -0.702713
 O    -1.276124    -0.160953    -0.816117
 C     0.059033     1.160018     1.867812
 O     2.640774     1.202790     1.440709
 O     1.188067     1.532683    -0.646797
 P     1.293849     0.546742     0.697540
 P    -0.346369    -1.545512    -0.947607
 C     1.665445    -2.056195     1.813269
 O     1.783643    -2.478580     2.879143
 C     0.462818    -0.744978    -3.438969
 H     0.801338     0.144118    -2.897202
 C    -0.609751    -2.917067    -3.426907
 H    -1.124683    -3.710675    -2.881811
 C     0.681570    -0.852068    -4.807686
 H     1.179608    -0.063524    -5.374512
 C    -0.383587    -3.038402    -4.795811
 H    -0.695616    -3.923534    -5.353068
 C     0.255450    -2.001817    -5.466577
 F     0.469117    -2.112289    -6.773281
 C    -1.990180    -2.895364     0.573127
 C    -3.245126    -2.381913     0.899863
 H    -3.842496    -1.893153     0.129420
 C    -1.219398    -3.544650     1.537008
 H    -0.252920    -3.960648     1.255243
 C    -3.712649    -2.476962     2.206895
 H    -4.688003    -2.069969     2.478230
 C    -1.676543    -3.627921     2.849042
 H    -1.066532    -4.102693     3.618568
 C    -2.914375    -3.077914     3.179760
Cl    -3.464086    -3.120741     4.822909
 C    -2.565827     0.086423    -1.178826
 C    -3.264136     0.999265    -0.381842
 H    -2.761392     1.431954     0.484831
 C    -3.192782    -0.501544    -2.278910
 H    -2.655506    -1.213033    -2.903828
 C    -4.582009     1.325039    -0.679364
 H    -5.132464     2.033288    -0.058040
 C    -4.515804    -0.179402    -2.573076
 H    -5.015062    -0.636218    -3.429012
 C    -5.207064     0.730673    -1.775982
Cl    -6.852188     1.126012    -2.147404
 C    -0.913911     0.253227     2.306757
 H    -0.907595    -0.769451     1.925614
 C     0.065165     2.465012     2.382876
 H     0.835309     3.175442     2.080907
 C    -1.882658     0.637772     3.227685
 H    -2.634473    -0.065742     3.588698
 C    -0.907035     2.864069     3.292364
 H    -0.925525     3.875814     3.700888
 C    -1.869542     1.944401     3.700207
 F    -2.793465     2.326705     4.574005
 C     3.877163     0.717454     1.106965
 C     4.603694     0.020899     2.071653
 H     4.162763    -0.128876     3.058550
 C     4.404352     0.904217    -0.172475
 H     3.820178     1.435918    -0.925497
 C     5.861153    -0.486705     1.762528
 H     6.437288    -1.037576     2.507487
 C     5.661572     0.394429    -0.486378
 H     6.083871     0.530846    -1.483133
 C     6.383928    -0.300130     0.482349
Cl     7.943722    -0.943232     0.090872
 C     0.878919     2.866966    -0.630806
 C     1.849236     3.821441    -0.322571
 H     2.860145     3.503446    -0.063976
 C    -0.418220     3.258818    -0.957954
 H    -1.155864     2.493629    -1.200226
 C     1.513359     5.172697    -0.323410
 H     2.259375     5.930767    -0.079839
 C    -0.755953     4.608004    -0.961671
 H    -1.769345     4.925893    -1.211626
 C     0.210946     5.559882    -0.638351
Cl    -0.207742     7.240171    -0.632507
