 100
scf done:    -4182.841685
 C    -1.466541     1.477083     2.502793
 H    -1.366633     2.469127     2.957634
 H    -2.511939     1.249700     2.277263
 C    -0.715071     0.384496     3.175072
 H    -0.160907     0.675564     4.077025
 H    -1.312069    -0.518386     3.366300
 H     0.146592    -0.053160     2.509235
Co    -0.130274     1.013261     1.148669
 C    -1.286613    -1.428958    -1.185093
 O    -2.882837    -0.493570     0.763517
 O    -2.217300     0.995483    -1.269132
 C     2.687488     1.612177    -0.711682
 O     2.959028     0.277099     1.511294
 O     1.825545    -0.973345    -0.445517
 P     1.751281     0.473139     0.362449
 P    -1.534995     0.017610    -0.088890
 C     0.168658     2.701679     0.965308
 O     0.306855     3.838491     0.839874
 C    -1.411852    -1.319976    -2.574422
 H    -1.672180    -0.353635    -3.007427
 C    -0.946517    -2.668971    -0.605475
 C    -0.795275    -2.836269     0.876451
 H    -1.776409    -2.974215     1.357507
 H    -0.328988    -1.949166     1.327790
 H    -0.176774    -3.713585     1.111356
 C    -1.227668    -2.427578    -3.397305
 H    -1.334927    -2.326433    -4.479729
 C    -0.772455    -3.770439    -1.449450
 H    -0.510538    -4.735343    -1.007159
 C    -0.915584    -3.660842    -2.829981
 H    -0.772885    -4.539621    -3.463592
 C    -3.921339    -1.265786     0.326482
 C    -4.484974    -1.141921    -0.944969
 H    -4.089864    -0.403904    -1.642285
 C    -4.450975    -2.187160     1.231086
 H    -4.014930    -2.251258     2.230307
 C    -5.554768    -1.958545    -1.300984
 H    -5.987030    -1.853111    -2.300076
 C    -5.524399    -2.990277     0.858972
 H    -5.930882    -3.704964     1.580182
 C    -6.092443    -2.900331    -0.416953
 C    -7.223211    -3.797093    -0.831077
 H    -7.820843    -4.119382     0.034054
 H    -6.847185    -4.708117    -1.326741
 H    -7.896431    -3.295337    -1.541696
 C    -2.453960     2.327445    -1.038118
 C    -3.384362     2.734622    -0.084230
 H    -3.930139     1.983415     0.488726
 C    -1.769892     3.275383    -1.794544
 H    -1.047834     2.942577    -2.540609
 C    -3.600089     4.093361     0.126749
 H    -4.324894     4.405005     0.883893
 C    -2.001055     4.629079    -1.575938
 H    -1.447781     5.365482    -2.164943
 C    -2.908062     5.065463    -0.603837
 C    -3.101925     6.528406    -0.330411
 H    -2.326403     6.902170     0.359042
 H    -4.078655     6.727502     0.133677
 H    -3.033042     7.125248    -1.251958
 C     3.747471     2.350453    -0.171839
 H     4.044751     2.173750     0.862166
 C     2.277344     1.835224    -2.042707
 C     1.139970     1.082249    -2.660616
 H     0.276941     1.047273    -1.982070
 H     1.418542     0.041874    -2.886339
 H     0.819064     1.554826    -3.599257
 C     4.422779     3.293034    -0.940174
 H     5.249371     3.859195    -0.505113
 C     2.973164     2.786325    -2.795761
 H     2.665051     2.963034    -3.829756
 C     4.034691     3.508973    -2.259433
 H     4.555245     4.247835    -2.873514
 C     2.706795    -0.343239     2.702667
 C     2.859655     0.380918     3.883694
 H     3.162613     1.427989     3.826001
 C     2.300328    -1.676581     2.747445
 H     2.186793    -2.234038     1.816250
 C     2.603789    -0.232988     5.105673
 H     2.721190     0.344023     6.027256
 C     2.036714    -2.272311     3.978715
 H     1.708100    -3.315015     4.004490
 C     2.182338    -1.567287     5.178574
 C     1.924860    -2.225020     6.503242
 H     1.496585    -1.517385     7.228366
 H     2.859333    -2.614237     6.941152
 H     1.232011    -3.072893     6.404126
 C     2.858802    -1.480935    -1.189533
 C     2.506406    -2.290506    -2.270902
 H     1.449021    -2.472457    -2.468355
 C     4.202621    -1.248678    -0.898989
 H     4.478928    -0.634353    -0.042754
 C     3.499675    -2.854428    -3.062721
 H     3.209810    -3.488909    -3.905229
 C     5.182453    -1.819425    -1.709936
 H     6.233863    -1.630914    -1.475820
 C     4.857611    -2.625394    -2.804655
 C     5.921527    -3.210287    -3.687956
 H     6.028049    -2.630180    -4.619983
 H     5.682855    -4.245108    -3.976588
 H     6.901596    -3.213877    -3.189921
