  94
scf done:    -5023.211745
 C    -0.048733     3.456246    -0.296521
 H    -0.959502     3.955061     0.055006
 H     0.866918     4.003307    -0.045098
 C    -0.107202     2.893699    -1.658269
 H    -1.013552     3.156980    -2.220494
 H     0.797905     3.048477    -2.260385
 H    -0.231610     1.697858    -1.691588
Co     0.009184     1.508100     0.025095
 C     1.865758    -0.901278    -1.679352
 O     3.133638     1.186912    -0.844177
 O     2.290060    -0.467190     0.964076
 C    -1.852857    -0.850221     1.646261
 O    -3.183122     1.168094     0.726580
 O    -2.279172    -0.509254    -1.013289
 P    -1.749561     0.387086     0.318897
 P     1.740090     0.368188    -0.384060
 C     0.311073     1.966239     1.636810
 O     0.501176     2.295070     2.725113
 C     0.686572    -1.542590    -2.072138
 H    -0.274574    -1.217865    -1.664990
 C     3.086218    -1.300432    -2.241525
 H     4.007492    -0.793746    -1.950511
 C     0.719585    -2.587170    -2.992838
 H    -0.199137    -3.088773    -3.301431
 C     3.129894    -2.341291    -3.160681
 H     4.076544    -2.664996    -3.595953
 C     1.944756    -2.983526    -3.525086
Cl     2.000043    -4.286515    -4.662833
 C     3.417388     2.421935    -0.329397
 C     3.390649     2.660580     1.043269
 H     3.148091     1.842970     1.724946
 C     3.729733     3.447316    -1.223461
 H     3.748863     3.229992    -2.292989
 C     3.638357     3.943172     1.547596
 C     3.558164     4.187467     3.025645
 H     2.580437     3.866445     3.416938
 H     4.327305     3.611756     3.564944
 H     3.698561     5.249841     3.268052
 C     3.997995     4.717733    -0.724884
 H     4.241268     5.528535    -1.415866
 C     3.942664     4.968531     0.646973
 H     4.138330     5.975253     1.024456
 C     3.303324    -1.392389     0.917295
 C     4.630425    -0.975095     0.985108
 H     4.847481     0.092095     1.064039
 C     2.982023    -2.745301     0.811704
 H     1.934488    -3.044784     0.745363
 C     5.669610    -1.911308     0.939016
 C     7.098284    -1.460918     1.038146
 H     7.259567    -0.513201     0.503639
 H     7.384160    -1.293308     2.089902
 H     7.787181    -2.211384     0.625326
 C     4.012414    -3.678962     0.766003
 H     3.774556    -4.741301     0.674112
 C     5.343084    -3.267396     0.824073
 H     6.143378    -4.010598     0.779684
 C    -0.664720    -1.445245     2.081793
 H     0.295438    -1.104205     1.687927
 C    -3.072734    -1.269673     2.193773
 H    -4.001869    -0.797450     1.871850
 C    -0.687831    -2.464057     3.030605
 H     0.238376    -2.927622     3.374140
 C    -3.106638    -2.286193     3.140559
 H    -4.053010    -2.624519     3.565077
 C    -1.912172    -2.882798     3.547497
Cl    -1.953993    -4.156159     4.719360
 C    -3.500963     2.367770     0.161408
 C    -3.470410     2.550029    -1.223900
 H    -3.183836     1.712032    -1.863573
 C    -3.877480     3.412730     1.003675
 H    -3.890063     3.243598     2.081514
 C    -3.797470     3.788260    -1.785911
 C    -3.723605     3.995099    -3.271506
 H    -3.682059     3.038480    -3.811158
 H    -4.591508     4.560490    -3.642519
 H    -2.823917     4.571660    -3.545197
 C    -4.216147     4.642440     0.445786
 H    -4.511749     5.466768     1.099318
 C    -4.172509     4.833801    -0.933919
 H    -4.436243     5.806500    -1.357080
 C    -3.278044    -1.447390    -0.950895
 C    -4.612026    -1.057596    -1.051196
 H    -4.848120     0.002291    -1.165228
 C    -2.937606    -2.791588    -0.796437
 H    -1.886901    -3.071889    -0.701943
 C    -5.635799    -2.009658    -0.989452
 C    -7.070418    -1.587201    -1.121684
 H    -7.253160    -0.622601    -0.625697
 H    -7.347357    -1.465118    -2.182120
 H    -7.751746    -2.332577    -0.687555
 C    -3.952323    -3.741356    -0.735632
 H    -3.697557    -4.795680    -0.604644
 C    -5.288815    -3.355656    -0.826453
 H    -6.077053    -4.110747    -0.768868
