  96
scf done:    -3882.051671
 C     0.786082    -1.763937    -2.974627
 H     0.562690    -1.608754    -4.037085
 H     1.857782    -1.963837    -2.847903
 C    -0.133317    -2.697756    -2.269619
 H    -0.937493    -3.125169    -2.883389
 H     0.364974    -3.503851    -1.710302
 H    -0.726038    -2.177573    -1.404619
Co    -0.103567    -0.571212    -1.718064
 C     1.130285    -1.439006     1.366544
 C     3.139359    -1.272951    -0.622177
 C     1.984019     1.148222     0.436489
 C    -1.585144     1.716713     0.379189
 C    -3.193688     0.771104    -1.751403
 C    -2.707765    -0.929969     0.561133
 P    -1.812417     0.194996    -0.619196
 P     1.486403    -0.534607    -0.194231
 C    -0.175229     0.636025    -2.907603
 O    -0.138179     1.495544    -3.690182
 C     0.331022    -0.851385     2.359498
 H    -0.006114     0.182586     2.248907
 C     1.530545    -2.766624     1.561252
 H     2.150526    -3.270364     0.816953
 C    -0.040874    -1.557884     3.497948
 H    -0.655785    -1.064212     4.256297
 C     1.150699    -3.473747     2.701547
 H     1.484502    -4.508117     2.824153
 C     0.356024    -2.888496     3.691603
 C    -0.084870    -3.659099     4.900615
 H    -1.114875    -4.032753     4.774411
 H     0.560967    -4.529854     5.082057
 H    -0.076364    -3.031479     5.804174
 H     2.931064    -2.257720    -1.076467
 H     3.685508    -1.458641     0.314916
 C     4.003825    -0.455476    -1.546142
 C     5.393772    -0.480305    -1.375609
 H     5.822020    -1.081811    -0.569284
 C     3.474493     0.343298    -2.566650
 H     2.393357     0.372456    -2.713572
 C     6.231367     0.272001    -2.193787
 H     7.312420     0.241221    -2.036463
 C     4.310845     1.104709    -3.381970
 H     3.871576     1.726353    -4.166082
 C     5.691948     1.073884    -3.199660
 H     6.346613     1.671826    -3.838381
 H     1.135311     1.509468     1.035324
 H     2.008559     1.786436    -0.457836
 C     3.278223     1.255756     1.187963
 C     4.375217     1.896766     0.598451
 H     4.276591     2.304188    -0.411079
 C     3.435366     0.728279     2.478156
 H     2.595518     0.230294     2.965451
 C     5.591594     2.003933     1.268492
 H     6.432012     2.504493     0.781615
 C     4.652764     0.829776     3.147563
 H     4.751949     0.410194     4.151880
 C     5.737700     1.466648     2.545593
 H     6.691714     1.546557     3.072440
 C    -0.852004     2.762872    -0.200512
 H    -0.422226     2.635748    -1.197305
 C    -2.123526     1.914961     1.653715
 H    -2.726147     1.139382     2.129296
 C    -0.666567     3.962661     0.475245
 H    -0.094303     4.763214    -0.001844
 C    -1.916790     3.113652     2.335178
 H    -2.347014     3.243080     3.332138
 C    -1.185790     4.158187     1.762598
 C    -0.941529     5.439278     2.503308
 H    -1.632305     5.554888     3.350270
 H     0.084992     5.469719     2.904686
 H    -1.056015     6.312436     1.843657
 H    -3.466568    -0.108285    -2.354268
 H    -2.700830     1.475064    -2.438832
 C    -4.377642     1.395490    -1.083399
 C    -4.361953     2.752622    -0.729064
 H    -3.490097     3.361066    -0.979410
 C    -5.515117     0.644414    -0.756966
 H    -5.566681    -0.409637    -1.040784
 C    -5.436122     3.331774    -0.059787
 H    -5.397902     4.391051     0.205588
 C    -6.592470     1.221060    -0.086280
 H    -7.468606     0.613516     0.153165
 C    -6.554936     2.567511     0.269917
 H    -7.398292     3.022087     0.795072
 H    -3.711205    -0.511711     0.741679
 H    -2.148402    -0.885643     1.505415
 C    -2.774403    -2.356302     0.102304
 C    -1.938955    -3.313637     0.690671
 H    -1.265255    -3.012967     1.494668
 C    -3.625050    -2.766763    -0.932123
 H    -4.288898    -2.043408    -1.409020
 C    -1.946964    -4.636789     0.256003
 H    -1.281363    -5.362114     0.730560
 C    -3.635304    -4.089525    -1.369377
 H    -4.306334    -4.386050    -2.179170
 C    -2.793229    -5.030839    -0.778781
 H    -2.799034    -6.067442    -1.123717
