  96
scf done:    -3882.037813
 C    -0.871383     2.542838    -2.183835
 H    -0.909257     2.607067    -3.278107
 H    -1.840958     2.844115    -1.765960
 C     0.314409     3.193680    -1.560774
 H     1.072516     3.559809    -2.264347
 H     0.081681     3.990676    -0.837941
 H     0.907257     2.457265    -0.876309
Co     0.045716     1.017623    -1.389247
 C    -0.861092     0.497786     1.899517
 C    -3.024239     1.553280     0.249047
 C    -2.155916    -1.159476    -0.098419
 C     1.487759    -1.871544    -0.081941
 C     3.068086    -0.433968    -1.895587
 C     2.684216     0.728961     0.774005
 P     1.751685    -0.106987    -0.598306
 P    -1.449686     0.543814     0.144387
 C    -0.027718     0.209518    -2.886696
 O    -0.177406    -0.367166    -3.883948
 C    -0.472596    -0.722287     2.475860
 H    -0.624263    -1.656434     1.935205
 C    -0.634919     1.687701     2.629518
 C    -0.949944     3.041787     2.064642
 H    -2.024125     3.272107     2.121291
 H    -0.649847     3.095445     1.007911
 H    -0.414189     3.830253     2.610013
 C     0.106380    -0.785759     3.740389
 H     0.392992    -1.755649     4.153645
 C    -0.067666     1.602340     3.906864
 H     0.094891     2.526655     4.469089
 C     0.305765     0.384059     4.467782
 H     0.751981     0.351690     5.464353
 H    -2.738628     2.598629     0.056191
 H    -3.407299     1.505054     1.278063
 C    -4.111789     1.143698    -0.706990
 C    -5.431588     1.053756    -0.249166
 H    -5.647106     1.257315     0.802953
 C    -3.852006     0.849209    -2.051969
 H    -2.827022     0.904413    -2.425065
 C    -6.463238     0.675322    -1.103198
 H    -7.483292     0.600353    -0.718812
 C    -4.883066     0.464516    -2.906751
 H    -4.656254     0.231341    -3.950126
 C    -6.192484     0.375144    -2.437250
 H    -6.999156     0.070192    -3.108334
 H    -1.359484    -1.863376     0.181052
 H    -2.242696    -1.258329    -1.189273
 C    -3.464464    -1.538933     0.537165
 C    -3.768653    -1.289201     1.881785
 H    -3.037138    -0.794532     2.522561
 C    -4.432987    -2.175198    -0.250112
 H    -4.222169    -2.357051    -1.307112
 C    -5.005364    -1.651708     2.412880
 H    -5.222065    -1.440877     3.463278
 C    -5.666690    -2.541614     0.278348
 H    -6.408176    -3.023302    -0.363575
 C    -5.961264    -2.277370     1.614816
 H    -6.931862    -2.556129     2.032145
 C     0.638662    -2.536674    -0.982447
 H     0.196426    -1.972294    -1.805370
 C     2.069660    -2.614504     0.972296
 C     3.069269    -2.083188     1.958803
 H     2.666779    -1.259252     2.562664
 H     3.978577    -1.728778     1.451269
 H     3.372587    -2.881523     2.649086
 C     0.337682    -3.889187    -0.863964
 H    -0.325392    -4.365029    -1.589655
 C     1.722046    -3.968579     1.092955
 H     2.159321    -4.540227     1.915845
 C     0.872245    -4.609658     0.198448
 H     0.637858    -5.668713     0.329017
 H     3.342366     0.540906    -2.322770
 H     2.527489    -0.973785    -2.687440
 C     4.252759    -1.210386    -1.414974
 C     4.238486    -2.612423    -1.440199
 H     3.376263    -3.130708    -1.866415
 C     5.375790    -0.570732    -0.870251
 H     5.423481     0.520992    -0.854107
 C     5.298221    -3.348923    -0.917704
 H     5.260643    -4.440570    -0.944031
 C     6.438413    -1.305919    -0.347823
 H     7.302545    -0.784605     0.071062
 C     6.400028    -2.699340    -0.362224
 H     7.230823    -3.277157     0.049467
 H     3.652391     0.225573     0.901904
 H     2.090030     0.548627     1.680890
 C     2.893141     2.209232     0.613269
 C     2.412548     3.081950     1.596153
 H     1.888117     2.663448     2.457058
 C     3.582913     2.765066    -0.473264
 H     3.977800     2.120244    -1.258481
 C     2.591678     4.459629     1.491261
 H     2.202287     5.116897     2.272903
 C     3.764083     4.141534    -0.583233
 H     4.299312     4.547511    -1.444951
 C     3.264184     4.997756     0.396457
 H     3.402771     6.077721     0.308342
