  96
scf done:    -3882.042787
 C    -0.555100    -1.092778    -3.049212
 H    -0.416864    -2.092703    -3.478392
 H    -1.555611    -0.709708    -3.290515
 C     0.563029    -0.144668    -3.303337
 H     1.475731    -0.589629    -3.720747
 H     0.285500     0.748882    -3.884278
 H     0.918617     0.368392    -2.312286
Co     0.097009    -0.765567    -1.245261
 C    -1.820402     1.932237     0.084122
 C    -3.302124    -0.115076    -1.268899
 C    -2.238414    -0.694481     1.198172
 C     2.146107    -1.243979     1.553932
 C     3.340646    -0.674130    -1.022652
 C     2.202573     1.434198     0.500294
 P     1.846322    -0.292938     0.003365
 P    -1.710729     0.139760    -0.365851
 C     0.162064    -2.452856    -1.010165
 O     0.123040    -3.604131    -0.880053
 C    -1.846191     2.346243     1.422659
 H    -1.901904     1.598039     2.214000
 C    -1.744019     2.916727    -0.930097
 C    -1.675455     2.552354    -2.383295
 H    -2.676157     2.374198    -2.807559
 H    -1.109731     1.620987    -2.522519
 H    -1.195222     3.348420    -2.969794
 C    -1.804051     3.693980     1.770135
 H    -1.818197     3.982483     2.823795
 C    -1.722523     4.266125    -0.561969
 H    -1.670358     5.022834    -1.350392
 C    -1.749859     4.662236     0.772627
 H    -1.723051     5.723936     1.029933
 C    -3.540720    -1.390330    -1.799149
 H    -2.767548    -2.158149    -1.712864
 C    -4.313589     0.843012    -1.369749
 H    -4.168365     1.837779    -0.940444
 C    -4.748647    -1.688978    -2.417155
 H    -4.911623    -2.694116    -2.816800
 C    -5.520657     0.540575    -2.000040
 H    -6.297065     1.308245    -2.066678
 C    -5.760330    -0.726473    -2.538107
 C    -7.049477    -1.050259    -3.234559
 H    -7.453616    -2.018178    -2.900615
 H    -7.812139    -0.280099    -3.051710
 H    -6.902892    -1.121167    -4.325123
 C    -3.462609    -0.392920     1.814829
 H    -4.114055     0.372653     1.386234
 C    -1.451026    -1.700432     1.754420
 H    -0.501270    -1.953930     1.285567
 C    -3.860477    -1.060223     2.965659
 H    -4.816281    -0.803431     3.431808
 C    -1.855426    -2.373765     2.906381
 H    -1.208167    -3.151397     3.321146
 C    -3.063119    -2.065610     3.534821
 C    -3.516380    -2.799914     4.762255
 H    -4.334472    -3.499302     4.522789
 H    -2.699103    -3.385552     5.206163
 H    -3.898686    -2.107208     5.527658
 C     2.931937    -2.403085     1.493698
 H     3.422185    -2.673059     0.557096
 C     1.513653    -0.897191     2.769163
 C     0.655445     0.321703     2.935411
 H     0.194346     0.636070     1.992020
 H     1.245525     1.178747     3.297230
 H    -0.150023     0.127121     3.657304
 C     3.103282    -3.219428     2.606725
 H     3.718500    -4.118785     2.530832
 C     1.703897    -1.733221     3.876648
 H     1.209795    -1.470583     4.816276
 C     2.485471    -2.881613     3.807757
 H     2.607851    -3.513699     4.690668
 C     3.343498    -1.821349    -1.831311
 H     2.474757    -2.481960    -1.833443
 C     4.462717     0.159394    -1.066234
 H     4.491950     1.070394    -0.466939
 C     4.439794    -2.132457    -2.627531
 H     4.415796    -3.040814    -3.236454
 C     5.552240    -0.150420    -1.878668
 H     6.413875     0.523028    -1.893864
 C     5.565740    -1.300158    -2.672144
 C     6.728696    -1.625512    -3.562136
 H     7.608027    -1.012992    -3.318352
 H     7.014225    -2.685060    -3.477061
 H     6.478312    -1.442860    -4.620239
 C     3.126389     1.765366     1.497723
 H     3.661081     0.972843     2.028803
 C     1.528474     2.465043    -0.157769
 H     0.791690     2.213143    -0.922485
 C     3.357129     3.097842     1.829395
 H     4.077058     3.339403     2.616488
 C     1.764492     3.794319     0.173893
 H     1.210372     4.580491    -0.344855
 C     2.677625     4.134873     1.178327
 C     2.897035     5.570701     1.554130
 H     3.149555     6.180452     0.672693
 H     1.983978     6.003672     1.994196
 H     3.708194     5.679444     2.287479
