 102
scf done:    -4579.766458
 C    -0.866465     0.242920    -3.629337
 H    -0.547348    -0.332494    -4.506692
 H    -1.953762     0.379938    -3.654401
 C    -0.085318     1.490198    -3.390160
 H     0.739757     1.667747    -4.094322
 H    -0.695189     2.404529    -3.312455
 H     0.452495     1.478470    -2.352702
Co     0.014251    -0.162849    -1.938337
 C    -1.429750     1.494562     0.636108
 C    -3.294164     0.729110    -1.395415
 C    -2.140273    -1.306147     0.509301
 C     1.441607    -1.292110     0.905194
 C     3.204108    -0.904229    -1.313664
 C     2.178564     1.448310     0.324421
 P     1.694981    -0.150368    -0.511415
 P    -1.707282     0.144435    -0.583330
 C     0.389036    -1.706516    -2.534111
 O     0.577115    -2.788819    -2.918054
 C    -1.219453     1.306562     2.007212
 H    -1.330842     0.317316     2.450917
 C    -1.284022     2.797139     0.128481
 H    -1.432211     2.980458    -0.939326
 C    -0.835846     2.361444     2.836051
 H    -0.650534     2.196564     3.899077
 C    -0.934121     3.864672     0.943874
 H    -0.826934     4.870572     0.534871
 C    -0.684210     3.634703     2.298070
Cl    -0.137948     4.938264     3.300706
 H    -2.903447     1.433869    -2.155358
 C    -4.318690     1.503429    -0.563652
 H    -3.837195     2.320354    -0.006472
 H    -4.769036     0.839627     0.190762
 C    -5.419557     2.063050    -1.462287
 H    -6.162909     2.604131    -0.854248
 H    -4.978704     2.809350    -2.148482
 C    -6.096328     0.968374    -2.280115
 H    -6.853920     1.402405    -2.952723
 H    -6.640599     0.292465    -1.595507
 C    -5.079384     0.155656    -3.073968
 H    -4.617535     0.796263    -3.847295
 H    -5.577869    -0.667364    -3.611325
 C    -3.984165    -0.398562    -2.168680
 H    -4.439046    -1.101777    -1.450854
 H    -3.248170    -0.976387    -2.748165
 H    -1.264047    -1.354315     1.182512
 C    -2.161241    -2.636783    -0.251382
 H    -1.233186    -2.752819    -0.827433
 H    -2.979228    -2.631562    -0.989667
 C    -2.352171    -3.818507     0.695242
 H    -2.414601    -4.752291     0.113011
 H    -1.461363    -3.911233     1.337539
 C    -3.576936    -3.660083     1.587161
 H    -3.648535    -4.504182     2.292034
 H    -4.492558    -3.690588     0.968451
 C    -3.531214    -2.336579     2.340430
 H    -2.670123    -2.341750     3.034128
 H    -4.433124    -2.210899     2.961608
 C    -3.396660    -1.165202     1.371786
 H    -4.283392    -1.152318     0.716497
 H    -3.404544    -0.208874     1.916150
 C     1.353894    -2.667915     0.637788
 H     1.503111    -3.041996    -0.377422
 C     1.219659    -0.864131     2.219369
 H     1.283516     0.193383     2.474228
 C     1.046695    -3.580921     1.638859
 H     0.978504    -4.647077     1.417699
 C     0.885046    -1.765307     3.228836
 H     0.692995    -1.418454     4.245656
 C     0.790308    -3.120815     2.930399
Cl     0.309123    -4.242054     4.158990
 H     2.759554    -1.829819    -1.722039
 C     4.395025    -1.335031    -0.459519
 H     4.058793    -1.913113     0.415425
 H     4.927028    -0.454271    -0.069704
 C     5.366197    -2.157284    -1.304431
 H     6.233472    -2.460427    -0.695552
 H     4.868002    -3.090640    -1.623401
 C     5.825829    -1.383440    -2.536369
 H     6.499238    -2.003232    -3.150360
 H     6.420555    -0.510411    -2.210167
 C     4.643879    -0.898154    -3.369660
 H     4.115361    -1.767550    -3.799807
 H     4.995718    -0.294552    -4.222123
 C     3.657199    -0.094796    -2.528555
 H     4.140342     0.839834    -2.192874
 H     2.774111     0.189010    -3.124124
 H     1.305788     1.639190     0.976431
 C     2.260484     2.640781    -0.634563
 H     1.331769     2.721751    -1.217054
 H     3.074293     2.479192    -1.361331
 C     2.499763     3.949966     0.114696
 H     2.609884     4.774396    -0.608633
 H     1.607240     4.181403     0.717933
 C     3.705938     3.887298     1.042446
 H     3.796604     4.827386     1.609919
 H     4.630717     3.791578     0.444653
 C     3.600881     2.696737     1.986678
 H     2.734238     2.836625     2.658613
 H     4.491922     2.633175     2.632084
 C     3.434969     1.402140     1.197477
 H     4.314778     1.282475     0.545182
 H     3.428321     0.530570     1.868457
