 102
scf done:    -4879.561759
 C    -0.494311     2.189822    -3.496023
 H     0.070347     2.399794    -4.412228
 H    -1.544481     1.992867    -3.744409
 C    -0.266325     3.153281    -2.384418
 H     0.452001     3.957850    -2.591101
 H    -1.181825     3.585378    -1.952023
 H     0.185574     2.645379    -1.429690
Co     0.394058     1.073251    -2.173174
 C    -1.976451     0.643877     0.290190
 C    -2.883633     0.170624    -2.427035
 C    -1.147466    -1.798543    -1.168720
 C     2.256138    -0.973617    -0.067658
 C     3.656561     1.113902    -1.301711
 C     1.826031     1.689858     0.906827
 P     1.923184     0.727728    -0.678511
 P    -1.361730     0.056619    -1.335266
 C     1.220005     0.263290    -3.412376
 O     1.731614    -0.348510    -4.257729
 C    -1.437315     0.164219     1.494788
 H    -0.725024    -0.662833     1.486880
 C    -2.869251     1.722873     0.362645
 H    -3.281065     2.158017    -0.549931
 C    -1.798437     0.714162     2.721474
 H    -1.375539     0.326353     3.649551
 C    -3.248478     2.277577     1.580894
 H    -3.950385     3.111759     1.620583
 C    -2.707591     1.770247     2.759949
Cl    -3.139811     2.488317     4.276710
 H    -3.158890     1.235382    -2.463620
 H    -2.478932    -0.064661    -3.423315
 C    -4.063991    -0.693918    -2.118657
 C    -4.189045    -1.955727    -2.715222
 H    -3.454106    -2.278463    -3.457610
 C    -5.050370    -0.296055    -1.205930
 H    -4.981125     0.687072    -0.737619
 C    -5.239659    -2.801999    -2.370469
 H    -5.315284    -3.788546    -2.833769
 C    -6.112865    -1.130791    -0.848857
 C    -7.148571    -0.669427     0.134941
 H    -7.540791    -1.508284     0.728260
 H    -6.737563     0.077762     0.829161
 H    -8.005495    -0.205138    -0.381142
 C    -6.190272    -2.399233    -1.436422
 H    -7.006855    -3.073129    -1.163200
 H    -1.673805    -2.206232    -2.046177
 H    -0.078841    -1.967293    -1.342857
 C    -1.569744    -2.527581     0.074736
 C    -0.612316    -3.241027     0.807291
 H     0.418452    -3.275597     0.453142
 C    -2.884493    -2.504444     0.545594
 H    -3.641891    -1.946970    -0.004916
 C    -0.965495    -3.896099     1.983302
 H    -0.205337    -4.448546     2.541678
 C    -3.256790    -3.153108     1.727111
 C    -4.677628    -3.071351     2.205523
 H    -5.377702    -3.390845     1.418014
 H    -4.845306    -3.698219     3.092630
 H    -4.943887    -2.034346     2.467611
 C    -2.279481    -3.848790     2.445947
 H    -2.551774    -4.359222     3.373952
 C     2.501585    -1.282523     1.273876
 H     2.403976    -0.521014     2.048201
 C     2.408992    -1.988233    -1.024380
 H     2.227567    -1.775347    -2.081244
 C     2.910041    -2.558061     1.655470
 H     3.111560    -2.789695     2.702326
 C     2.825434    -3.264486    -0.660032
 H     2.954951    -4.046698    -1.409523
 C     3.082357    -3.538758     0.683096
Cl     3.630082    -5.114787     1.146714
 H     3.716710     0.591051    -2.267928
 H     3.658101     2.189519    -1.531755
 C     4.770063     0.702042    -0.389552
 C     5.220269     1.521787     0.654546
 H     4.824737     2.533593     0.768527
 C     5.340703    -0.569638    -0.520866
 H     5.018400    -1.209046    -1.346569
 C     6.182450     1.059474     1.549422
 H     6.529085     1.710992     2.355391
 C     6.293135    -1.058855     0.377089
 C     6.825177    -2.455351     0.233014
 H     6.098334    -3.194092     0.610087
 H     7.018707    -2.704164    -0.821127
 H     7.759918    -2.592603     0.794816
 C     6.706148    -0.224920     1.421845
 H     7.454278    -0.582302     2.134626
 H     1.050311     1.192489     1.507083
 H     2.785423     1.581593     1.437172
 C     1.459016     3.135376     0.731118
 C     2.348649     4.066616     0.178742
 H     3.351461     3.760461    -0.122094
 C     0.191445     3.579180     1.120164
 H    -0.505814     2.862174     1.558313
 C     1.965943     5.394314     0.013695
 H     2.669503     6.111037    -0.416784
 C    -0.207463     4.912239     0.970095
 C    -1.578776     5.351254     1.394175
 H    -1.889275     4.856808     2.326081
 H    -1.623272     6.438995     1.546252
 H    -2.327193     5.092890     0.626626
 C     0.696991     5.815914     0.404261
 H     0.407676     6.862811     0.278720
