 108
scf done:    -3739.395731
 C    -0.868762     0.169171    -3.483454
 H    -0.550820    -0.423855    -4.349686
 H    -1.957291     0.296355    -3.505851
 C    -0.099005     1.430777    -3.281864
 H     0.707148     1.607558    -4.008340
 H    -0.717906     2.338681    -3.203801
 H     0.469192     1.437340    -2.262547
Co     0.027082    -0.186356    -1.788360
 C    -1.494859     1.503830     0.758278
 C    -3.307901     0.596385    -1.261072
 C    -2.061015    -1.326422     0.695863
 C     1.503045    -1.244679     1.086204
 C     3.235407    -0.789101    -1.142188
 C     2.094029     1.520584     0.473330
 P     1.687969    -0.108179    -0.344159
 P    -1.694221     0.114824    -0.433500
 C     0.451648    -1.726569    -2.360492
 O     0.676481    -2.807037    -2.730597
 C    -1.275171     1.356933     2.131841
 H    -1.294210     0.367480     2.589539
 C    -1.455707     2.808239     0.236069
 H    -1.609694     2.964521    -0.835632
 C    -1.014524     2.462272     2.944070
 H    -0.838442     2.308911     4.012903
 C    -1.224487     3.908434     1.050584
 H    -1.213425     4.909405     0.609515
 C    -0.984301     3.757625     2.424578
 C    -0.673671     4.945772     3.285711
 H     0.337372     5.332845     3.072747
 H    -1.378696     5.771292     3.103953
 H    -0.712888     4.691973     4.354305
 H    -2.952200     1.305484    -2.034009
 C    -4.378999     1.331024    -0.452464
 H    -3.946218     2.183095     0.091506
 H    -4.800196     0.659078     0.311361
 C    -5.500898     1.811593    -1.370792
 H    -6.277233     2.325508    -0.780384
 H    -5.094754     2.564981    -2.070591
 C    -6.112120     0.664567    -2.168466
 H    -6.886868     1.042375    -2.855547
 H    -6.624725    -0.024032    -1.472033
 C    -5.047490    -0.110616    -2.937002
 H    -4.614874     0.535994    -3.722163
 H    -5.497708    -0.971127    -3.458222
 C    -3.930757    -0.583864    -2.012262
 H    -4.353104    -1.293478    -1.280840
 H    -3.160109    -1.134415    -2.572822
 H    -1.184838    -1.312479     1.370677
 C    -2.014769    -2.679336    -0.021184
 H    -1.085588    -2.763629    -0.600195
 H    -2.837438    -2.745032    -0.751553
 C    -2.130284    -3.833858     0.969545
 H    -2.137886    -4.791989     0.424511
 H    -1.228535    -3.842715     1.604319
 C    -3.360308    -3.715106     1.860889
 H    -3.383193    -4.535579     2.597200
 H    -4.272947    -3.824209     1.246692
 C    -3.395987    -2.363251     2.563189
 H    -2.538394    -2.287683     3.257313
 H    -4.306269    -2.268214     3.177919
 C    -3.324585    -1.222354     1.552570
 H    -4.209894    -1.281642     0.897784
 H    -3.383383    -0.249332     2.062782
 C     1.499264    -2.627358     0.839656
 H     1.639680    -3.003559    -0.176344
 C     1.288833    -0.818615     2.401036
 H     1.281947     0.244413     2.643077
 C     1.300991    -3.537800     1.869700
 H     1.310065    -4.607807     1.643874
 C     1.065788    -1.737008     3.427249
 H     0.892605    -1.370545     4.443200
 C     1.066376    -3.112118     3.184516
 C     0.789021    -4.103968     4.274583
 H     0.842854    -3.639220     5.269026
 H    -0.220258    -4.534856     4.162148
 H     1.501672    -4.942167     4.247855
 H     2.835849    -1.731141    -1.559256
 C     4.439958    -1.171450    -0.283571
 H     4.124435    -1.774840     0.581655
 H     4.926201    -0.271092     0.120625
 C     5.456311    -1.936588    -1.128964
 H     6.332518    -2.204631    -0.516176
 H     5.006161    -2.889088    -1.462498
 C     5.888051    -1.127889    -2.348501
 H     6.596873    -1.706679    -2.962872
 H     6.435580    -0.229841    -2.007668
 C     4.690444    -0.693122    -3.187080
 H     4.209681    -1.583588    -3.629980
 H     5.018795    -0.064326    -4.030800
 C     3.657743     0.051256    -2.346931
 H     4.089574     1.006870    -1.999934
 H     2.766508     0.294482    -2.948021
 H     1.231677     1.656094     1.152270
 C     2.063458     2.713731    -0.486491
 H     1.109034     2.730214    -1.030526
 H     2.859316     2.608713    -1.243303
 C     2.235091     4.034501     0.259540
 H     2.260369     4.867649    -0.461929
 H     1.343718     4.192796     0.888855
 C     3.474586     4.054857     1.144413
 H     3.525004     4.999853     1.709892
 H     4.381147     4.022301     0.512904
 C     3.487451     2.859582     2.088887
 H     2.639293     2.936274     2.793985
 H     4.404851     2.857345     2.699873
 C     3.377458     1.555727     1.305543
 H     4.242668     1.488810     0.626209
 H     3.442803     0.687611     1.978030
