  84
scf done:    -4121.678946
 C    -0.881545     0.261807    -3.477085
 H    -0.707720    -0.390860    -4.341432
 H    -1.941827     0.533105    -3.413706
 C     0.064042     1.406736    -3.358927
 H     0.827063     1.467679    -4.148361
 H    -0.412955     2.390446    -3.236269
 H     0.726012     1.325485    -2.397876
Co     0.041093    -0.174873    -1.816149
 C    -1.627073     1.765382     0.476764
 C    -3.352883     0.182076    -1.181386
 C    -1.935110    -1.110461     0.791590
 C     1.623146    -1.415888     0.965352
 C     3.318707    -0.475242    -1.126090
 C     2.013562     1.416144     0.538870
 P     1.674283    -0.155831    -0.359671
 P    -1.646013     0.196467    -0.477530
 C     0.341178    -1.768743    -2.358280
 O     0.452555    -2.874404    -2.689054
 C    -1.192440     1.857316     1.804711
 H    -0.988012     0.948494     2.372120
 C    -1.868472     2.962498    -0.213339
 H    -2.195726     2.930752    -1.256975
 C    -1.011919     3.092800     2.417950
 H    -0.660220     3.128605     3.452932
 C    -1.697595     4.196496     0.407880
 H    -1.900328     5.112452    -0.154561
 C    -1.255965     4.287877     1.733131
 C    -0.999786     5.612439     2.388336
 H    -1.387480     6.445608     1.785561
 H    -1.464836     5.666075     3.384569
 H     0.082301     5.772199     2.528455
 C    -3.640275    -0.820898    -2.117752
 H    -2.838512    -1.485865    -2.450122
 C    -4.387755     1.022878    -0.759088
 H    -4.194153     1.801919    -0.018734
 C    -4.924476    -0.981713    -2.625844
 H    -5.159241    -1.759928    -3.354235
 C    -5.677690     0.880152    -1.267065
 H    -6.493105     1.532161    -0.948401
 C    -5.928630    -0.121701    -2.195267
 F    -7.159346    -0.262781    -2.683596
 C    -1.420529    -2.388147     0.550671
 H    -0.807000    -2.562016    -0.333171
 C    -2.743012    -0.911696     1.918842
 H    -3.198836     0.063952     2.102316
 C    -1.673649    -3.440260     1.424644
 H    -1.269392    -4.437338     1.245049
 C    -2.981685    -1.947001     2.818070
 H    -3.595879    -1.803002     3.708854
 C    -2.433589    -3.198161     2.559131
 F    -2.641116    -4.191047     3.428094
 C     1.989959    -2.733345     0.668541
 H     2.399339    -2.977625    -0.314981
 C     1.087825    -1.143636     2.230147
 H     0.788312    -0.126403     2.485594
 C     1.823467    -3.743821     1.612391
 H     2.111810    -4.766937     1.355949
 C     0.927485    -2.156114     3.168035
 H     0.497422    -1.917855     4.144713
 C     1.281373    -3.478428     2.874459
 C     1.031848    -4.572588     3.868887
 H     1.412721    -4.305601     4.866497
 H    -0.050589    -4.754510     3.973776
 H     1.504445    -5.516122     3.562539
 C     3.434833    -0.423414    -2.517623
 H     2.533567    -0.252168    -3.111433
 C     4.463460    -0.732031    -0.359871
 H     4.392220    -0.797462     0.728029
 C     4.666020    -0.609294    -3.142120
 H     4.770198    -0.574362    -4.227970
 C     5.698119    -0.926672    -0.967759
 H     6.598344    -1.134431    -0.386605
 C     5.782508    -0.857884    -2.355541
 F     6.963038    -1.043039    -2.939918
 C     1.522769     2.605577    -0.009101
 H     0.899153     2.567943    -0.902352
 C     2.778172     1.487640     1.711490
 H     3.174416     0.577815     2.166602
 C     1.782439     3.836512     0.582293
 H     1.393105     4.763913     0.160694
 C     3.027688     2.709034     2.330533
 H     3.608933     2.775554     3.251946
 C     2.522415     3.868969     1.754971
 F     2.738628     5.040694     2.354772
