  54
scf done:    -4099.672612
 C    -0.508236    -3.631790     0.937152
 H     0.196485    -4.452757     1.111913
 H    -1.140695    -3.456842     1.813095
 C    -1.206596    -3.672480    -0.377230
 H    -0.938578    -4.522744    -1.020123
 H    -2.301244    -3.584770    -0.318005
 H    -0.934135    -2.752013    -1.060955
Co     0.195072    -2.033029     0.062300
 C    -2.165225     0.427079     0.721202
 O    -1.542705    -1.337088     2.631137
 O     0.084778     0.552602     1.982590
 C     2.073291     0.595672    -0.921598
 O     1.638709    -1.269219    -2.702283
 O    -0.235415     0.406227    -2.082872
 P     0.841803    -0.636891    -1.408023
 P    -0.817319    -0.659163     1.313281
 C     1.781023    -2.533105     0.482404
 O     2.826091    -2.835401     0.874522
 C    -2.006908     1.797577     0.503106
 H    -1.067543     2.274102     0.787847
 C    -3.382006    -0.177486     0.380450
 H    -3.520209    -1.249547     0.552047
 C    -3.034272     2.552195    -0.058750
 H    -2.913309     3.622374    -0.235280
 C    -4.421918     0.564510    -0.168533
 H    -5.373480     0.097731    -0.428154
 C    -4.235579     1.929537    -0.394321
Cl    -5.514917     2.859336    -1.098836
 C    -2.183186    -0.548861     3.611337
 H    -1.552666     0.300939     3.917189
 H    -3.146007    -0.155426     3.244633
 H    -2.368225    -1.193692     4.481644
 C     1.367303     0.265872     2.504019
 H     1.327126    -0.544350     3.250052
 H     2.072231    -0.019493     1.709486
 H     1.728425     1.182942     2.988640
 C     3.401387     0.194999    -0.737246
 H     3.701453    -0.826162    -0.980434
 C     1.703561     1.908142    -0.616613
 H     0.673261     2.224888    -0.781761
 C     4.346442     1.086330    -0.240976
 H     5.383120     0.780111    -0.093685
 C     2.640278     2.808232    -0.118276
 H     2.359905     3.835075     0.121613
 C     3.955786     2.388147     0.073516
Cl     5.122291     3.499100     0.707277
 C     1.386141    -2.586933    -3.132396
 H     1.213480    -3.255743    -2.271786
 H     0.509822    -2.630184    -3.801686
 H     2.268551    -2.932822    -3.688449
 C    -1.483892    -0.056536    -2.539175
 H    -1.416092    -0.391675    -3.587601
 H    -1.856185    -0.887501    -1.916260
 H    -2.201098     0.773164    -2.471611
