  88
scf done:    -5863.583580
 C    -1.666409     1.469296     2.311233
 H    -1.701695     2.481783     2.728534
 H    -2.666585     1.125845     2.032803
 C    -0.849712     0.488553     3.074983
 H    -0.393555     0.872828     3.996609
 H    -1.360572    -0.464987     3.268737
 H     0.094628     0.121473     2.482204
Co    -0.198896     1.105702     1.064858
 C    -0.959244    -1.471104    -1.285726
 O    -2.709911    -0.761530     0.627708
 O    -2.215176     0.798479    -1.393881
 C     2.643692     1.966260    -0.645296
 O     2.926628     0.662135     1.597496
 O     2.023537    -0.684947    -0.412672
 P     1.764852     0.748286     0.386968
 P    -1.421905    -0.074115    -0.197671
 C    -0.041990     2.811444     0.856943
 O     0.012570     3.951244     0.703540
 C    -1.043282    -1.365167    -2.678765
 H    -1.394399    -0.431378    -3.119344
 C    -0.502917    -2.668359    -0.696521
 C    -0.387869    -2.830245     0.789638
 H    -1.354800    -3.122525     1.228735
 H    -0.077602    -1.891539     1.269862
 H     0.344003    -3.610025     1.042250
 C    -0.706473    -2.439793    -3.497061
 H    -0.784298    -2.344101    -4.582397
 C    -0.176868    -3.737856    -1.536857
 H     0.173015    -4.671496    -1.088536
 C    -0.281696    -3.635254    -2.921317
 H    -0.021505    -4.489108    -3.551432
 C    -3.628697    -1.662735     0.179345
 C    -4.142315    -1.653750    -1.120224
 H    -3.803581    -0.903558    -1.833715
 C    -4.084255    -2.608000     1.101878
 H    -3.685483    -2.584544     2.117998
 C    -5.089630    -2.602443    -1.494995
 H    -5.492785    -2.606114    -2.508843
 C    -5.034927    -3.551874     0.730050
 H    -5.394520    -4.292448     1.446092
 C    -5.529990    -3.549945    -0.573498
Cl    -6.707911    -4.729990    -1.047145
 C    -2.720241     2.047207    -1.142324
 C    -3.857209     2.202604    -0.348841
 H    -4.333209     1.323480     0.088421
 C    -2.108656     3.157926    -1.718573
 H    -1.216045     3.020353    -2.329383
 C    -4.375003     3.473429    -0.121484
 H    -5.261383     3.609574     0.499831
 C    -2.623053     4.430547    -1.494352
 H    -2.142342     5.308643    -1.927275
 C    -3.752654     4.582797    -0.692721
Cl    -4.391878     6.166956    -0.402758
 C     3.639635     2.768703    -0.075528
 H     3.924637     2.605710     0.964115
 C     2.249663     2.172253    -1.984255
 C     1.178346     1.350831    -2.633116
 H     0.310933     1.239678    -1.967745
 H     1.534433     0.337484    -2.872998
 H     0.837039     1.815441    -3.568430
 C     4.268291     3.759347    -0.822501
 H     5.045429     4.375535    -0.365126
 C     2.898044     3.172715    -2.714984
 H     2.603176     3.337158    -3.754741
 C     3.897248     3.958965    -2.149213
 H     4.382355     4.734628    -2.746464
 C     2.669633     0.026382     2.777034
 C     2.680390     0.769050     3.957218
 H     2.881919     1.840486     3.907572
 C     2.403448    -1.343531     2.808946
 H     2.407815    -1.912556     1.878071
 C     2.421195     0.145066     5.173207
 H     2.424304     0.714810     6.103746
 C     2.132691    -1.968705     4.022804
 H     1.917299    -3.037656     4.061263
 C     2.139155    -1.221152     5.199716
Cl     1.795377    -1.996123     6.709535
 C     3.128461    -1.069868    -1.121786
 C     2.900472    -1.868320    -2.244014
 H     1.874797    -2.137176    -2.500019
 C     4.430661    -0.723843    -0.756274
 H     4.606739    -0.114117     0.129282
 C     3.970940    -2.316083    -3.009414
 H     3.801869    -2.940683    -3.887897
 C     5.502003    -1.167548    -1.527546
 H     6.524157    -0.900612    -1.254990
 C     5.270348    -1.958355    -2.650718
Cl     6.607543    -2.507697    -3.607014
