  84
scf done:    -5562.792030
 C    -0.796396     0.275301    -3.502581
 H    -0.674654    -0.413002    -4.347901
 H    -1.825231     0.652220    -3.465778
 C     0.258051     1.321443    -3.392038
 H     1.037550     1.285134    -4.166636
 H    -0.118671     2.351012    -3.301584
 H     0.890144     1.199794    -2.414654
Co     0.050950    -0.212579    -1.815614
 C    -1.452973     1.953121     0.387800
 C    -3.294677     0.481621    -1.249847
 C    -2.046050    -0.865324     0.787659
 C     1.473020    -1.555438     1.007074
 C     3.273494    -0.807357    -1.073882
 C     2.138063     1.218447     0.545707
 P     1.654005    -0.326835    -0.334990
 P    -1.603646     0.363203    -0.516471
 C     0.186447    -1.843797    -2.312635
 O     0.181764    -2.963220    -2.613268
 C    -1.032713     2.051543     1.720090
 H    -0.914016     1.148349     2.320618
 C    -1.573465     3.141544    -0.347230
 H    -1.881683     3.102022    -1.396364
 C    -0.761407     3.287841     2.297522
 H    -0.427169     3.329581     3.337962
 C    -1.311173     4.376992     0.237923
 H    -1.425213     5.287342    -0.357499
 C    -0.895885     4.476143     1.571154
 C    -0.568724     5.799336     2.196450
 H    -0.850261     6.636660     1.542736
 H    -1.089251     5.927610     3.158018
 H     0.511633     5.877617     2.401266
 C    -4.252679     1.429273    -0.877324
 H    -4.000506     2.213153    -0.159959
 C    -3.658815    -0.520822    -2.158558
 H    -2.917522    -1.268091    -2.454778
 C    -5.540971     1.389865    -1.406522
 H    -6.287030     2.132053    -1.117718
 C    -4.943373    -0.578692    -2.686675
 H    -5.224476    -1.361570    -3.392816
 C    -5.879023     0.384759    -2.309763
Cl    -7.478698     0.329939    -2.970938
 C    -2.853527    -0.545901     1.886475
 H    -3.210550     0.476863     2.027132
 C    -1.658781    -2.195309     0.603361
 H    -1.045209    -2.463076    -0.256860
 C    -3.220870    -1.519335     2.809856
 H    -3.838795    -1.268940     3.673684
 C    -2.039222    -3.185229     1.503977
 H    -1.728861    -4.220125     1.356083
 C    -2.802005    -2.835056     2.613605
Cl    -3.243357    -4.050706     3.770929
 C     1.728863    -2.903677     0.733579
 H     2.121767    -3.198378    -0.242800
 C     0.949883    -1.218046     2.261447
 H     0.728327    -0.175852     2.496092
 C     1.478195    -3.879867     1.694544
 H     1.685956    -4.927132     1.458747
 C     0.705472    -2.197205     3.216634
 H     0.289932    -1.908315     4.185817
 C     0.960615    -3.548295     2.951365
 C     0.650079    -4.599451     3.974326
 H     1.087976    -4.348232     4.952622
 H    -0.439071    -4.686308     4.119936
 H     1.031251    -5.584552     3.671605
 C     3.408210    -0.797512    -2.463819
 H     2.532748    -0.559313    -3.073110
 C     4.382102    -1.149821    -0.289408
 H     4.295936    -1.184970     0.798814
 C     4.623701    -1.107992    -3.069070
 H     4.727909    -1.102235    -4.155145
 C     5.599852    -1.468627    -0.878073
 H     6.463552    -1.741727    -0.269789
 C     5.714020    -1.441268    -2.269558
Cl     7.229011    -1.836481    -3.006553
 C     2.887225     1.228419     1.729749
 H     3.177787     0.290146     2.206359
 C     1.783759     2.443471    -0.026737
 H     1.174590     2.459542    -0.930757
 C     3.257881     2.426036     2.332949
 H     3.830567     2.431307     3.261703
 C     2.163433     3.649768     0.551150
 H     1.875158     4.599042     0.098795
 C     2.890415     3.632034     1.737552
Cl     3.332452     5.127519     2.495175
