 100
scf done:    -4182.696984
 C     0.502843     2.934986    -1.373902
 H     0.428619     3.938733    -0.937182
 H     1.459099     2.819448    -1.901516
 C    -0.695844     2.497524    -2.139822
 H    -1.582999     3.136304    -2.038335
 H    -0.510121     2.288813    -3.204975
 H    -1.062324     1.441530    -1.790658
Co    -0.105160     1.421256    -0.313790
 C     1.612157    -1.454152    -1.534929
 C     3.218575     0.878080    -1.116918
 C     2.304607    -0.489534     1.091690
 C    -1.985670    -0.226726     2.131823
 C    -3.342054     1.280076     0.076386
 C    -2.316475    -1.298305    -0.521066
 P    -1.839763     0.236665     0.352715
 P     1.650915     0.101120    -0.530830
 C    -0.011848     2.402546     1.077142
 O     0.140278     3.088602     1.999425
 C     1.644195    -2.714315    -0.922768
 H     1.793513    -2.781331     0.155351
 C     1.415383    -1.384374    -2.934761
 C     1.337807    -0.073602    -3.659761
 H     2.337103     0.305452    -3.926318
 H     0.873585     0.694046    -3.026217
 H     0.753549    -0.167298    -4.586283
 C     1.489671    -3.886589    -1.657925
 H     1.509345    -4.852737    -1.148187
 C     1.281695    -2.573786    -3.658871
 H     1.134159    -2.513904    -4.741254
 C     1.313824    -3.818585    -3.036170
 H     1.192420    -4.729987    -3.626338
 C     4.145116     0.253523    -1.963107
 H     3.928619    -0.737538    -2.370580
 C     3.549803     2.130877    -0.593311
 H     2.849893     2.627883     0.083442
 C     5.347241     0.867187    -2.288279
 H     6.070066     0.385340    -2.949618
 C     4.755907     2.755803    -0.902447
 H     4.974803     3.731733    -0.468502
 C     5.663696     2.126118    -1.762078
 O     6.851546     2.647841    -2.130656
 C     7.221455     3.900264    -1.628153
 H     7.296067     3.896510    -0.526157
 H     8.208732     4.129987    -2.048996
 H     6.512502     4.691362    -1.930741
 C     1.634412    -0.182845     2.280299
 H     0.694878     0.366181     2.234615
 C     3.518066    -1.180654     1.183986
 H     4.083459    -1.409862     0.277293
 C     2.136589    -0.571419     3.513840
 H     1.604418    -0.334748     4.436947
 C     4.034834    -1.584660     2.411878
 H     4.982470    -2.123190     2.439102
 C     3.339845    -1.281418     3.591452
 O     3.756583    -1.625863     4.826370
 C     4.962420    -2.322057     4.962967
 H     5.819215    -1.742060     4.576571
 H     5.107417    -2.493949     6.037219
 H     4.935850    -3.298378     4.446831
 C    -2.658754     0.649845     2.994248
 H    -3.151816     1.532606     2.583646
 C    -1.343801    -1.366970     2.665081
 C    -0.592008    -2.359414     1.828285
 H    -0.195599    -1.911250     0.910097
 H    -1.240962    -3.192849     1.515407
 H     0.252918    -2.774383     2.395477
 C    -2.712148     0.418136     4.364556
 H    -3.240413     1.119721     5.014080
 C    -1.414582    -1.580875     4.047571
 H    -0.910950    -2.457760     4.463974
 C    -2.086878    -0.706972     4.895305
 H    -2.115913    -0.901973     5.970079
 C    -4.579079     0.748308    -0.321335
 H    -4.683150    -0.324339    -0.490502
 C    -3.257184     2.665705     0.247938
 H    -2.303120     3.109274     0.538930
 C    -5.681413     1.564252    -0.523139
 H    -6.641067     1.150636    -0.839045
 C    -4.359850     3.498088     0.061213
 H    -4.245026     4.571289     0.215123
 C    -5.585930     2.948964    -0.329415
 O    -6.706495     3.662709    -0.546174
 C    -6.666441     5.051472    -0.371468
 H    -5.946360     5.531242    -1.057602
 H    -7.673180     5.426205    -0.595547
 H    -6.405491     5.327788     0.665347
 C    -1.774060    -1.543134    -1.788453
 H    -1.057972    -0.832745    -2.205119
 C    -3.207134    -2.234516     0.010785
 H    -3.634193    -2.073287     1.004717
 C    -2.108035    -2.681429    -2.503777
 H    -1.671156    -2.883008    -3.482579
 C    -3.551583    -3.386810    -0.693973
 H    -4.244371    -4.098927    -0.244899
 C    -2.998293    -3.616837    -1.960728
 O    -3.257933    -4.701443    -2.715940
 C    -4.132169    -5.676342    -2.221953
 H    -5.143705    -5.270273    -2.043950
 H    -4.195477    -6.459979    -2.987586
 H    -3.760567    -6.124401    -1.283330
