 100
scf done:    -4182.697223
 C     0.998840    -0.411000    -3.318540
 H     0.744314     0.141024    -4.232350
 H     2.080692    -0.571511    -3.258959
 C     0.174616    -1.629103    -3.073563
 H    -0.590026    -1.832811    -3.838140
 H     0.765551    -2.540142    -2.891216
 H    -0.464369    -1.550817    -2.100658
Co     0.050676     0.079730    -1.697021
 C     1.265686    -1.410314     1.133904
 C     3.199403    -1.061667    -0.941939
 C     2.397421     1.199676     0.580934
 C    -1.544529     1.641677     0.749990
 C    -3.260577     0.569082    -1.311908
 C    -2.320727    -1.170727     0.658254
 P    -1.704866     0.222805    -0.391373
 P     1.678702    -0.276183    -0.256120
 C    -0.118578     1.654624    -2.318915
 O    -0.130742     2.739524    -2.732107
 C     1.456328    -1.123072     2.488152
 H     1.948586    -0.195515     2.783586
 C     0.610209    -2.605655     0.803771
 H     0.401421    -2.828114    -0.246429
 C     1.007020    -2.001162     3.473458
 H     1.153206    -1.743493     4.526577
 C     0.199407    -3.496665     1.787018
 H    -0.306340    -4.421435     1.497390
 C     0.378788    -3.205350     3.144696
 C    -0.125485    -4.142684     4.200978
 H     0.211491    -5.174796     4.017723
 H     0.214722    -3.845489     5.203049
 H    -1.227829    -4.158400     4.208960
 C     3.572195    -2.383009    -0.703075
 H     2.987627    -2.981547    -0.001537
 C     3.983677    -0.293935    -1.829138
 O     3.586094     0.979027    -2.004536
 C     4.165373     1.769271    -2.999819
 H     5.226836     1.987662    -2.786079
 H     3.601318     2.710363    -3.012066
 H     4.088761     1.291566    -3.992431
 C     4.685620    -2.948359    -1.327550
 H     4.956671    -3.986436    -1.122687
 C     5.099724    -0.853533    -2.457827
 H     5.701961    -0.257098    -3.144074
 C     5.445426    -2.180959    -2.204145
 H     6.319035    -2.611240    -2.700074
 C     1.814155     2.445317     0.360198
 H     0.921029     2.497070    -0.262334
 C     3.576323     1.138850     1.356337
 O     4.122409    -0.079015     1.530396
 C     5.356428    -0.210811     2.170246
 H     6.141650     0.380981     1.668211
 H     5.621330    -1.274234     2.112822
 H     5.306469     0.090278     3.232109
 C     2.351980     3.612473     0.901082
 H     1.867267     4.571915     0.710318
 C     4.120828     2.305455     1.904027
 H     5.028808     2.260805     2.506107
 C     3.504099     3.535858     1.674587
 H     3.942240     4.440087     2.105337
 C    -2.000325     2.903799     0.358059
 H    -2.567804     3.013500    -0.569253
 C    -0.790671     1.544322     1.926220
 H    -0.370313     0.584359     2.228837
 C    -1.720715     4.029184     1.129787
 H    -2.079447     5.007255     0.796721
 C    -0.533772     2.668255     2.701930
 H     0.066483     2.562630     3.610041
 C    -0.986826     3.934611     2.316632
 C    -0.648460     5.148439     3.130593
 H    -0.900848     5.005611     4.192837
 H     0.432926     5.359157     3.081946
 H    -1.180849     6.039975     2.770242
 C    -3.243234     0.475121    -2.702009
 H    -2.279843     0.261936    -3.174215
 C    -4.481672     0.849465    -0.662318
 O    -4.444838     0.930361     0.678217
 C    -5.617513     1.181464     1.395627
 H    -6.049692     2.165503     1.142847
 H    -5.338345     1.177708     2.456780
 H    -6.378108     0.400026     1.223228
 C    -4.401265     0.652794    -3.458108
 H    -4.364737     0.577893    -4.546802
 C    -5.645865     1.034852    -1.416274
 H    -6.593242     1.259866    -0.925753
 C    -5.597875     0.933627    -2.807002
 H    -6.515575     1.081825    -3.382070
 C    -2.562046    -1.084489     2.028455
 H    -2.376177    -0.142031     2.542501
 C    -2.633149    -2.383105     0.008208
 O    -2.411806    -2.416879    -1.322488
 C    -2.832061    -3.520398    -2.072687
 H    -2.289870    -4.440257    -1.791393
 H    -2.612070    -3.285252    -3.121396
 H    -3.916319    -3.693740    -1.963487
 C    -3.066463    -2.164864     2.752190
 H    -3.239649    -2.065293     3.825855
 C    -3.151756    -3.466125     0.722205
 H    -3.393569    -4.399217     0.213030
 C    -3.359519    -3.354447     2.096276
 H    -3.762872    -4.207022     2.648468
