  68
scf done:    -3115.670586
 C     0.900385    -3.609585    -0.214822
 H     0.326826    -4.544218    -0.188960
 H     1.632089    -3.646218    -1.031581
 C     1.467099    -3.194566     1.103898
 H     1.199998    -3.841276     1.951324
 H     2.556469    -3.033448     1.103211
 H     1.083872    -2.139750     1.430534
Co    -0.076724    -1.963967     0.130802
 C     2.033422     0.612092    -0.626078
 C     2.078671    -1.500672    -2.542707
 C    -0.194341     0.250606    -2.433446
 C    -1.885203     0.911681     0.564666
 C    -2.207439    -1.082588     2.576487
 C     0.239213     0.466989     2.500429
 P    -0.946258    -0.422955     1.395202
 P     0.940923    -0.693237    -1.319358
 C    -1.569123    -2.666944    -0.290735
 O    -2.579095    -3.095341    -0.674784
 C     1.710001     1.973225    -0.608020
 H     0.823808     2.334546    -1.131743
 C     3.175860     0.206977     0.083853
 H     3.444651    -0.852850     0.116036
 C     2.492275     2.889067     0.097199
 H     2.208032     3.945615     0.097809
 C     3.959323     1.122824     0.774028
 H     4.842056     0.773142     1.317571
 C     3.629901     2.486123     0.800433
 C     4.482227     3.469350     1.547632
 H     4.689077     3.124561     2.572650
 H     5.457094     3.606993     1.051517
 H     3.999792     4.454847     1.611280
 H     2.821903    -2.063210    -1.954407
 C     1.338557    -2.435109    -3.489156
 H     0.704943    -1.878205    -4.195588
 H     0.683254    -3.121876    -2.933218
 H     2.635825    -0.725153    -3.091741
 H     2.043558    -3.036580    -4.083354
 H    -0.774704     0.921633    -1.782529
 C     0.418501     1.007592    -3.602036
 H     0.864842     0.328741    -4.343302
 H     1.208698     1.701388    -3.278734
 H    -0.924967    -0.496552    -2.782733
 H    -0.350222     1.599563    -4.123430
 C    -3.003844     0.551592    -0.203779
 H    -3.322380    -0.493047    -0.249369
 C    -1.481194     2.249947     0.551654
 H    -0.605146     2.568011     1.118489
 C    -3.691963     1.500933    -0.948433
 H    -4.555793     1.190382    -1.543023
 C    -2.170403     3.196341    -0.207033
 H    -1.828032     4.235183    -0.205812
 C    -3.286827     2.843183    -0.969120
 C    -4.039639     3.860213    -1.775064
 H    -3.491548     4.810541    -1.840452
 H    -4.226089     3.501586    -2.798933
 H    -5.022898     4.072157    -1.323822
 H    -3.028209    -1.462799     1.947911
 C    -1.645394    -2.204441     3.433568
 H    -0.853514    -1.847452     4.111396
 H    -1.210824    -2.984873     2.789638
 H    -2.618685    -0.259802     3.182860
 H    -2.429750    -2.664491     4.053287
 H     0.877518     1.072806     1.837083
 C    -0.338520     1.290771     3.641130
 H    -0.829161     0.655008     4.393062
 H    -1.084729     2.019809     3.291829
 H     0.909182    -0.316040     2.891438
 H     0.458223     1.850428     4.155461
