  84
scf done:    -3724.907362
 C     0.897112     0.040810    -3.480831
 H     0.488485     0.615463    -4.321012
 H     1.992383     0.084427    -3.481342
 C     0.323047    -1.324500    -3.320333
 H    -0.445352    -1.599481    -4.057150
 H     1.076574    -2.123677    -3.251451
 H    -0.240856    -1.450677    -2.298152
Co    -0.030664     0.206401    -1.778656
 C     1.606671    -1.215573     0.924346
 C     3.309863    -0.456901    -1.232025
 C     2.238579     1.546696     0.421438
 C    -1.714749     1.175296     0.944860
 C    -3.359145     0.190347    -1.189468
 C    -2.042057    -1.676994     0.394863
 P    -1.706653    -0.050672    -0.409735
 P     1.709242     0.010705    -0.446161
 C    -0.504685     1.779009    -2.222895
 O    -0.750059     2.877601    -2.500040
 C     1.906453    -0.953386     2.264305
 H     2.288218     0.026959     2.556086
 C     1.105653    -2.484435     0.598571
 H     0.835145    -2.702912    -0.437602
 C     1.693301    -1.923836     3.243461
 H     1.917014    -1.687531     4.287797
 C     0.922562    -3.457611     1.571756
 H     0.523091    -4.433851     1.285415
 C     1.196523    -3.189352     2.918932
 C     0.928817    -4.223629     3.971459
 H     1.291575    -3.902824     4.957987
 H    -0.152712    -4.420473     4.055758
 H     1.411855    -5.181898     3.724823
 C     3.932586     0.494773    -2.054919
 C     3.889165    -1.724485    -1.114917
 C     5.676899    -1.080902    -2.612245
 C     5.063845    -2.033498    -1.802043
 C     5.107751     0.187382    -2.733741
 H     3.492905     1.491261    -2.153414
 H     5.581646     0.943643    -3.364365
 H     6.598499    -1.323533    -3.146674
 H     5.506081    -3.027031    -1.693200
 H     3.431658    -2.476033    -0.468186
 C     1.378087     2.645328     0.470386
 C     3.498067     1.641629     1.033516
 C     3.002483     3.894938     1.749120
 C     3.874909     2.805613     1.697101
 C     1.757406     3.813367     1.131444
 H     0.404686     2.587745    -0.016282
 H     1.070261     4.662400     1.155724
 H     3.302145     4.811490     2.263748
 H     4.858508     2.867073     2.169436
 H     4.190966     0.797827     0.980718
 C    -2.316693     2.423311     0.749948
 H    -2.907490     2.610234    -0.149676
 C    -0.941467     0.981606     2.097855
 H    -0.424298     0.034938     2.258878
 C    -2.150678     3.442476     1.685852
 H    -2.623380     4.412271     1.507415
 C    -0.793575     1.998546     3.032292
 H    -0.177853     1.821623     3.918678
 C    -1.387110     3.252265     2.841700
 C    -1.168576     4.359550     3.829227
 H    -1.368271     4.026248     4.859252
 H    -0.121414     4.703967     3.798843
 H    -1.813012     5.224433     3.618573
 C    -3.445556     0.311641    -2.577262
 C    -4.531743     0.201233    -0.422735
 C    -5.849829     0.471084    -2.428744
 C    -5.769895     0.347447    -1.039491
 C    -4.688372     0.449202    -3.196379
 H    -2.519182     0.303670    -3.158326
 H    -4.746137     0.545064    -4.283314
 H    -6.823742     0.584216    -2.911439
 H    -6.680310     0.362150    -0.435264
 H    -4.472679     0.095899     0.663940
 C    -2.019029    -2.802960    -0.439597
 C    -2.374548    -1.848508     1.741412
 C    -2.602618    -4.234409     1.413248
 C    -2.642240    -3.120822     2.247919
 C    -2.300031    -4.069599     0.060789
 H    -1.781863    -2.683492    -1.500578
 H    -2.280790    -4.933943    -0.607523
 H    -2.815228    -5.229308     1.811932
 H    -2.891364    -3.236834     3.305700
 H    -2.429303    -0.986515     2.407647
