 116
scf done:    -4640.377844
 C     0.838983    -0.956829    -3.093316
 H     1.933997    -1.014241    -3.086847
 H     0.407236    -1.714638    -3.759488
 C     0.264670     0.407284    -3.253359
 H     0.989950     1.189038    -3.524048
 H    -0.613491     0.463447    -3.908474
 H    -0.123692     0.844489    -2.238030
Co    -0.005945    -0.678824    -1.364882
 C    -2.122180     1.785518    -0.148094
 C    -3.254704    -0.570053    -1.367524
 C    -2.157966    -0.612104     1.381051
 C     1.572894    -0.548738     1.672546
 C     3.436439    -1.112002    -0.416081
 C     2.381341     1.523429    -0.258135
 P     1.807337    -0.253613    -0.126392
 P    -1.831370    -0.030862    -0.331716
 C    -0.550979    -2.283099    -1.468840
 O    -0.863480    -3.393465    -1.611074
 C    -1.000576     2.610635    -0.093278
 H    -0.011580     2.165411    -0.204079
 C    -3.387158     2.385810    -0.090031
 H    -4.276577     1.764918    -0.195225
 C    -1.126250     3.991827     0.058244
 H    -0.222048     4.607482     0.082142
 C    -3.510814     3.761516     0.060469
 H    -4.509205     4.209145     0.095471
 C    -2.383259     4.592446     0.150126
 C    -2.532875     6.074952     0.332077
 H    -3.279137     6.493734    -0.360896
 H    -2.871329     6.318226     1.353193
 H    -1.581059     6.598994     0.164579
 C    -3.869398    -1.819199    -1.163559
 O    -3.437233    -2.514093    -0.104334
 C    -3.675980    -3.885888    -0.000175
 H    -3.072961    -4.225421     0.851296
 H    -4.740781    -4.108267     0.193684
 H    -3.345794    -4.416932    -0.908252
 C    -3.602830     0.151308    -2.523766
 O    -2.883448     1.268241    -2.759124
 C    -3.255792     2.142740    -3.781426
 H    -2.579948     3.004850    -3.711224
 H    -4.295893     2.492802    -3.660639
 H    -3.147369     1.681859    -4.779435
 C    -4.609351    -0.298173    -3.386960
 H    -4.884250     0.278411    -4.269559
 C    -4.860574    -2.289824    -2.033502
 H    -5.334437    -3.255071    -1.856463
 C    -5.229873    -1.516235    -3.127557
 H    -6.007133    -1.877768    -3.805209
 C    -3.309332    -0.437130     2.067901
 O    -4.377764     0.090403     1.427870
 C    -5.411273     0.698850     2.150787
 H    -6.025174     1.241781     1.419206
 H    -6.057945    -0.037832     2.657996
 H    -5.030728     1.420743     2.893186
 C    -0.991145    -1.325040     2.017536
 O    -0.869119    -2.543227     1.351979
 C     0.282995    -3.323796     1.519034
 H    -0.004954    -4.364144     1.306904
 H     0.692372    -3.276321     2.543547
 H     1.071798    -3.031155     0.810734
 C    -1.080282    -1.452934     3.561507
 H    -0.634352    -2.413829     3.863849
 C    -3.455785    -0.843520     3.467332
 H    -4.440078    -0.765530     3.931565
 C    -2.419601    -1.312768     4.178795
 H    -2.563804    -1.619516     5.219581
 C     2.547676    -0.941148     2.514836
 H     3.557156    -1.113849     2.139935
 C     0.193899    -0.297291     2.188266
 H    -0.136865     0.664436     1.775113
 C     2.329224    -1.075739     3.949271
 H     3.172643    -1.410697     4.561504
 C    -0.008056    -0.333814     3.728195
 H    -0.458312     0.591538     4.125851
 C     1.169243    -0.747951     4.554190
 C     0.961504    -0.820501     6.030989
 H     0.665638     0.164038     6.434386
 H     0.142131    -1.515183     6.287446
 H     1.866934    -1.152964     6.558359
 C     4.678960    -0.509728    -0.120423
 O     4.652820     0.573687     0.679874
 C     5.751598     1.434498     0.741815
 H     5.418142     2.319884     1.299036
 H     6.607849     0.978542     1.269925
 H     6.076261     1.751803    -0.264144
 C     3.472971    -2.351364    -1.089562
 O     2.312331    -3.010029    -1.209279
 C     2.232443    -4.151294    -2.018111
 H     1.177832    -4.448386    -2.019112
 H     2.848876    -4.976398    -1.620034
 H     2.547217    -3.932061    -3.052819
 C     4.676335    -2.875617    -1.587377
 H     4.684390    -3.817471    -2.133568
 C     5.884157    -1.025460    -0.612415
 H     6.830028    -0.532092    -0.391005
 C     5.865242    -2.196210    -1.360461
 H     6.801855    -2.605005    -1.747698
 C     2.981655     1.910312    -1.473349
 O     3.167010     0.920308    -2.369249
 C     3.860770     1.159129    -3.557009
 H     3.905894     0.198198    -4.084818
 H     3.343086     1.894493    -4.198407
 H     4.888743     1.511723    -3.362745
 C     2.213952     2.524934     0.716261
 O     1.639365     2.158154     1.877222
 C     1.419515     3.101562     2.883383
 H     0.963097     2.557684     3.720084
 H     0.728632     3.897524     2.554810
 H     2.362394     3.558732     3.231324
 C     2.617593     3.848276     0.481392
 H     2.475362     4.611334     1.245498
 C     3.391648     3.225652    -1.717836
 H     3.853162     3.497089    -2.666457
 C     3.200681     4.187590    -0.732937
 H     3.511245     5.219093    -0.914716
