  96
scf done:    -3730.698996
 C     1.336910     2.093058     1.730575
 H     2.303508     1.611314     1.912167
 H     1.432658     3.184348     1.677833
 C     0.216276     1.604267     2.578553
 H     0.502492     0.821462     3.295339
 H    -0.361609     2.391732     3.082385
 H    -0.617001     1.045944     1.959918
Co     0.158614     1.276828     0.406583
 C    -2.998887    -0.131134     0.198004
 O    -2.773729     2.398592    -0.212306
 O    -1.963255     0.973663    -2.055832
 C     2.289561    -0.574708    -1.320579
 O     2.438697    -0.724567     1.380194
 O     0.562110    -2.017160     0.176543
 P     1.282765    -0.519811     0.209278
 P    -1.800599     1.091559    -0.419228
 C     0.650921     2.479858    -0.687808
 O     1.099572     3.243182    -1.435308
 C    -2.538040    -1.320892     0.761631
 H    -1.463395    -1.485076     0.869733
 C    -4.378489     0.057349     0.034962
 H    -4.740637     0.992584    -0.395642
 C    -3.440190    -2.311141     1.149475
 H    -3.063192    -3.240263     1.585484
 C    -5.269306    -0.933902     0.424026
 H    -6.343609    -0.774625     0.292040
 C    -4.816679    -2.138591     0.984449
 C    -5.791493    -3.206418     1.384702
 H    -6.550616    -2.814035     2.079454
 H    -6.330438    -3.597924     0.506769
 H    -5.286926    -4.051256     1.873779
 C    -2.513257     3.632746    -0.864855
 H    -1.535488     3.607966    -1.372996
 H    -3.280099     3.763685    -1.645845
 C    -2.564072     4.765516     0.137607
 H    -2.579524     5.719812    -0.417820
 H    -3.524820     4.704357     0.678526
 C    -1.407851     4.754187     1.126339
 H    -0.464492     4.912972     0.576327
 H    -1.329202     3.742678     1.555208
 C    -1.545449     5.785651     2.232658
 H    -1.602742     6.808636     1.826021
 H    -2.459686     5.617082     2.824770
 H    -0.690093     5.752620     2.924944
 C    -1.059037     0.236462    -2.859943
 H    -1.225255     0.594983    -3.888338
 H    -0.018280     0.479345    -2.582974
 C    -1.294076    -1.259070    -2.766153
 H    -0.596099    -1.754934    -3.463340
 H    -1.005629    -1.601957    -1.757102
 C    -2.724013    -1.686803    -3.061578
 H    -2.972979    -1.438491    -4.108843
 H    -3.407610    -1.090393    -2.437314
 C    -2.959618    -3.165441    -2.801823
 H    -2.296025    -3.796896    -3.415762
 H    -2.768194    -3.409027    -1.744309
 H    -3.997208    -3.457050    -3.025480
 C     3.168134     0.490877    -1.568645
 H     3.269255     1.291052    -0.830609
 C     2.149688    -1.562784    -2.297582
 H     1.452658    -2.387112    -2.139797
 C     3.896599     0.548904    -2.748851
 H     4.575444     1.389021    -2.919987
 C     2.876962    -1.494131    -3.485487
 H     2.749107    -2.276242    -4.239193
 C     3.762550    -0.441862    -3.732900
 C     4.533834    -0.352710    -5.016408
 H     4.416108    -1.261213    -5.623280
 H     4.192676     0.502490    -5.622206
 H     5.608409    -0.204475    -4.827613
 C     3.750397    -1.244597     1.264783
 H     3.785533    -2.212057     1.798520
 H     4.002092    -1.435379     0.208408
 C     4.741998    -0.276761     1.875552
 H     5.757820    -0.684598     1.728621
 H     4.704157     0.669609     1.307617
 C     4.496459    -0.003467     3.352829
 H     4.586517    -0.951075     3.913572
 H     3.452039     0.324617     3.481062
 C     5.440544     1.035081     3.934670
 H     6.493609     0.726034     3.832651
 H     5.330606     2.002944     3.419472
 H     5.246268     1.205838     5.004321
 C     1.236809    -3.248185     0.379606
 H     0.711824    -3.991812    -0.244593
 H     2.274874    -3.191679     0.010091
 C     1.215669    -3.681608     1.833435
 H     1.774658    -4.631696     1.907815
 H     1.768676    -2.940393     2.433534
 C    -0.180254    -3.856864     2.411741
 H    -0.748231    -4.569464     1.786713
 H    -0.714561    -2.896795     2.339888
 C    -0.172212    -4.327493     3.856605
 H     0.325988    -5.305036     3.960433
 H     0.365196    -3.614770     4.502624
 H    -1.193103    -4.430027     4.254642
