  90
scf done:    -4398.629597
 C    -0.206295     2.683376    -3.022254
 H     0.292432     2.829762    -3.987709
 H    -1.286340     2.834500    -3.137639
 C     0.421208     3.400699    -1.878772
 H     1.325905     3.974060    -2.120942
 H    -0.266348     4.033866    -1.297960
 H     0.787369     2.672583    -1.037160
Co     0.435454     1.206774    -1.928545
 C    -1.744655     0.971502     0.785964
 C    -2.968537     1.359016    -1.817470
 C    -1.783096    -1.225820    -1.187081
 C     1.831779    -1.568240    -0.362340
 C     3.630302     0.303338    -1.453826
 C     2.222885     0.922511     1.023743
 P     1.919269     0.240528    -0.679017
 P    -1.458793     0.612925    -0.991739
 C     0.880157     0.381765    -3.340590
 O     1.114554    -0.215843    -4.309445
 C    -1.256209     0.111516     1.782935
 H    -0.789406    -0.835758     1.508297
 C    -2.300546     2.192199     1.195220
 H    -2.643039     2.916241     0.453317
 C    -1.363248     0.430006     3.133889
 H    -1.000223    -0.248277     3.908129
 C    -2.417100     2.527304     2.542561
 H    -2.859048     3.473590     2.860306
 C    -1.955071     1.633228     3.500534
 F    -2.071035     1.939723     4.790066
 H    -2.923727     2.441728    -1.624021
 H    -2.733001     1.242177    -2.885931
 C    -4.324190     0.801618    -1.521798
 C    -4.855789    -0.217987    -2.325435
 H    -4.294287    -0.562643    -3.197855
 C    -5.099149     1.250452    -0.442248
 H    -4.728996     2.053337     0.195825
 C    -6.088010    -0.802016    -2.046248
 H    -6.497022    -1.600320    -2.667760
 C    -6.336127     0.682114    -0.150327
 H    -6.938089     1.028254     0.691728
 C    -6.812639    -0.348194    -0.951830
 F    -7.991858    -0.899883    -0.673455
 H    -2.448677    -1.285749    -2.062733
 H    -0.819273    -1.636378    -1.509899
 C    -2.319444    -2.059920    -0.059423
 C    -1.549283    -3.126163     0.421062
 H    -0.584188    -3.335762    -0.041897
 C    -3.553640    -1.813365     0.555121
 H    -4.174365    -0.985417     0.216552
 C    -1.978534    -3.918635     1.482750
 H    -1.374606    -4.747994     1.855594
 C    -4.001273    -2.596557     1.614123
 H    -4.961327    -2.402794     2.095797
 C    -3.204974    -3.639830     2.070630
 F    -3.626233    -4.385914     3.091952
 C     1.632066    -2.413408    -1.465930
 H     1.457544    -1.987786    -2.457340
 C     2.055275    -2.152347     0.889757
 H     2.228196    -1.532394     1.770224
 C     1.674147    -3.797637    -1.330115
 H     1.525237    -4.460243    -2.184495
 C     2.086086    -3.537013     1.044214
 H     2.262722    -3.998647     2.017216
 C     1.903975    -4.343313    -0.071048
 F     1.941073    -5.664708     0.067727
 H     3.479578    -0.101583    -2.465908
 H     3.856804     1.372037    -1.585709
 C     4.713925    -0.431247    -0.728282
 C     5.495857     0.185784     0.257778
 H     5.364069     1.248393     0.472934
 C     4.947485    -1.789786    -0.988556
 H     4.365990    -2.295249    -1.762175
 C     6.458580    -0.521420     0.974743
 H     7.069924    -0.039699     1.739801
 C     5.902958    -2.513287    -0.283174
 H     6.083107    -3.570430    -0.486049
 C     6.645033    -1.869327     0.699306
 F     7.559732    -2.555254     1.382466
 H     1.429659     0.505863     1.660915
 H     3.187060     0.535385     1.390605
 C     2.160574     2.420658     1.090984
 C     3.163604     3.240923     0.557721
 H     4.048286     2.797619     0.098638
 C     1.048650     3.041159     1.672198
 H     0.256830     2.425074     2.098139
 C     3.060072     4.629023     0.590655
 H     3.839386     5.270194     0.175132
 C     0.926589     4.426546     1.715014
 H     0.057604     4.906158     2.168979
 C     1.935559     5.207096     1.166556
 F     1.827176     6.533861     1.196621
