  94
scf done:    -4302.659003
 C    -0.291290     1.419127    -3.404024
 H    -0.307240     1.035243    -4.430202
 H    -1.218358     1.972610    -3.200738
 C     0.964571     2.112644    -2.994964
 H     1.746883     2.147486    -3.765279
 H     0.808989     3.114841    -2.570010
 H     1.500843     1.574851    -2.103307
Co     0.410867     0.202674    -2.038902
 C    -1.136461     2.592773    -0.322800
 O    -2.756252     0.874714    -1.338759
 O    -1.361184    -0.004911     0.630172
 C     1.068679    -2.399807     0.015504
 O     3.150633    -1.103098    -0.656063
 O     1.557467     0.245377     0.831927
 P     1.532748    -0.730596    -0.515558
 P    -1.177428     0.832888    -0.803859
 C     0.468084    -1.105166    -3.169475
 O     0.384793    -1.982917    -3.913494
 C     0.077260     3.076263     0.186090
 H     0.926019     2.394930     0.286853
 C    -2.224431     3.463114    -0.446964
 H    -3.167564     3.085810    -0.842616
 C     0.197712     4.400063     0.593386
 H     1.129804     4.792842     1.003927
 C    -2.110368     4.794428    -0.056486
 H    -2.945668     5.491422    -0.145075
 C    -0.902025     5.242950     0.463961
 F    -0.791472     6.511945     0.844210
 C    -3.510519    -0.229469    -1.634069
 C    -3.017444    -1.267314    -2.422741
 H    -2.012815    -1.186099    -2.835202
 C    -4.816000    -0.255076    -1.116395
 C    -5.336371     0.894946    -0.310217
 H    -4.660247     1.141596     0.521879
 H    -5.429932     1.800487    -0.931606
 H    -6.326355     0.665329     0.106001
 C    -3.814969    -2.383366    -2.671263
 H    -3.421829    -3.197167    -3.285046
 C    -5.593126    -1.384114    -1.388359
 H    -6.608942    -1.427621    -0.986026
 C    -5.103087    -2.447573    -2.146261
 H    -5.733280    -3.319536    -2.334521
 C    -2.280287     0.227776     1.627916
 C    -2.276591     1.426239     2.342911
 H    -1.533327     2.186601     2.112161
 C    -3.172584    -0.807616     1.956095
 C    -3.108266    -2.140540     1.279654
 H    -3.993953    -2.742907     1.521718
 H    -3.043858    -2.048187     0.187684
 H    -2.216989    -2.698469     1.607143
 C    -3.210277     1.638257     3.354169
 H    -3.203097     2.582777     3.902719
 C    -4.097708    -0.564862     2.976755
 H    -4.805769    -1.357296     3.233975
 C    -4.135158     0.645433     3.664891
 H    -4.874485     0.804487     4.452950
 C     1.927571    -3.207161     0.775804
 H     2.900891    -2.824413     1.084712
 C    -0.167112    -2.905248    -0.395045
 H    -0.832168    -2.276584    -0.988919
 C     1.546208    -4.493009     1.134588
 H     2.194344    -5.138465     1.729696
 C    -0.555484    -4.196283    -0.050647
 H    -1.516099    -4.605762    -0.367446
 C     0.307122    -4.970422     0.713980
 F    -0.055201    -6.203321     1.052466
 C     4.139348    -0.263363    -1.090537
 C     4.038185     0.412921    -2.304687
 H     3.145182     0.266718    -2.912880
 C     5.291032    -0.169886    -0.292216
 C     5.409158    -0.977444     0.963986
 H     4.557192    -0.811869     1.640980
 H     5.427397    -2.054967     0.733930
 H     6.331909    -0.729432     1.505654
 C     5.075220     1.245204    -2.719721
 H     4.993345     1.777166    -3.670468
 C     6.316840     0.669777    -0.736280
 H     7.219919     0.759601    -0.126333
 C     6.214081     1.382775    -1.929852
 H     7.031349     2.033234    -2.248867
 C     1.751819    -0.026391     2.159369
 C     0.938843    -0.935643     2.836272
 H     0.146311    -1.447343     2.292316
 C     2.729287     0.725479     2.831750
 C     3.497431     1.795713     2.117113
 H     4.371038     2.112212     2.703293
 H     3.841965     1.471643     1.125523
 H     2.863534     2.684204     1.957567
 C     1.136685    -1.155844     4.196377
 H     0.499230    -1.868939     4.723719
 C     2.906757     0.478710     4.196985
 H     3.669153     1.047624     4.736316
 C     2.131979    -0.458461     4.877327
 H     2.294004    -0.629375     5.943822
