  82
scf done:    -6703.957102
 C     2.219745     2.015961    -2.341558
 H     2.572461     1.832253    -3.363197
 H     1.686742     2.976149    -2.300676
 C     3.236966     1.814778    -1.267038
 H     4.231477     1.515086    -1.624263
 H     3.321413     2.656631    -0.564811
 H     2.968610     0.930879    -0.546885
Co     1.497990     0.469085    -1.383914
 C     0.308319     3.218797     0.122934
 O    -1.186618     2.303593    -1.807725
 O    -1.096020     0.889394     0.347301
 C    -0.218347    -2.202105    -0.164055
 O     2.387472    -2.269604     0.057540
 O     1.211963    -0.560529     1.567680
 P     1.204272    -1.091515    -0.015011
 P    -0.077589     1.661540    -0.731169
 C     1.609088    -0.537406    -2.792475
 O     1.623061    -1.165081    -3.758844
 C     0.973454     3.101336     1.350595
 H     1.177336     2.107584     1.762260
 C     0.068383     4.485960    -0.416369
 H    -0.452519     4.574974    -1.371881
 C     1.369509     4.236818     2.047723
 H     1.875318     4.157842     3.011249
 C     0.473283     5.628561     0.269238
 H     0.291626     6.623166    -0.141179
 C     1.117446     5.496002     1.499028
Cl     1.616722     6.911998     2.356341
 C    -1.809052     1.444318    -2.680850
 C    -3.125469     1.058001    -2.430161
 H    -3.653113     1.475221    -1.571786
 C    -1.122499     0.941246    -3.785401
 H    -0.103532     1.275193    -3.977075
 C    -3.743871     0.129174    -3.261244
 H    -4.769579    -0.190123    -3.070034
 C    -1.731924    -0.000281    -4.609775
 H    -1.192200    -0.426806    -5.456226
 C    -3.034509    -0.413405    -4.332424
Cl    -3.778773    -1.631527    -5.314934
 C    -2.348610     1.212112     0.777052
 C    -3.195679     0.137681     1.066315
 H    -2.829370    -0.878174     0.908794
 C    -2.799590     2.522266     0.946256
 H    -2.145260     3.363579     0.723247
 C    -4.488522     0.367578     1.521489
 H    -5.154885    -0.467404     1.743762
 C    -4.097596     2.752319     1.396725
 H    -4.460297     3.772834     1.529163
 C    -4.938183     1.678443     1.682941
Cl    -6.551164     1.972108     2.241776
 C    -0.391043    -3.348909     0.624093
 H     0.349899    -3.622291     1.375987
 C    -1.162151    -1.903386    -1.153489
 H    -1.021691    -1.024829    -1.785632
 C    -1.509233    -4.156612     0.452197
 H    -1.656128    -5.044323     1.069105
 C    -2.275514    -2.714493    -1.345568
 H    -3.001382    -2.486107    -2.126969
 C    -2.447952    -3.830802    -0.529138
Cl    -3.838417    -4.835018    -0.741135
 C     3.689158    -1.912429    -0.175500
 C     4.326329    -2.416520    -1.308338
 H     3.767825    -3.068122    -1.982359
 C     4.369932    -1.057557     0.693658
 H     3.857025    -0.655829     1.569234
 C     5.647404    -2.071933    -1.573626
 H     6.155504    -2.456418    -2.459262
 C     5.691500    -0.707588     0.428976
 H     6.234157    -0.038390     1.098427
 C     6.324120    -1.215528    -0.704372
Cl     7.965069    -0.774738    -1.039579
 C     0.819178    -1.291540     2.657619
 C     1.678417    -2.225499     3.237933
 H     2.665157    -2.397138     2.805699
 C    -0.446135    -1.064706     3.196638
 H    -1.095877    -0.325762     2.727448
 C     1.259993    -2.949946     4.350920
 H     1.917900    -3.687500     4.813189
 C    -0.865795    -1.785506     4.309621
 H    -1.856055    -1.620200     4.736859
 C    -0.012224    -2.730376     4.879007
Cl    -0.534340    -3.636865     6.258772
