 110
scf done:    -5480.829155
 C    -0.721103     1.337702     3.069683
 H    -1.808270     1.444989     3.150886
 H    -0.300052     1.060968     4.043921
 C    -0.011253     2.438489     2.362556
 H    -0.661955     3.278984     2.083329
 H     0.899813     2.801298     2.859598
 H     0.350605     2.117318     1.297124
Co    -0.009765     0.411630     1.519325
 C     2.672261     1.286135    -0.563278
 C     3.337756    -0.500535     1.311244
 C     1.577349    -1.447542    -0.804507
 C    -1.969757    -1.266962    -0.689526
 C    -3.306219     0.456672     1.347034
 C    -2.496298     1.494787    -1.090842
 P    -1.828788     0.344943     0.219886
 P     1.794738    -0.052206     0.364752
 C     0.135975    -0.954344     2.505256
 O     0.205179    -1.866174     3.222618
 C     3.125964     1.229912    -1.882675
 H     2.932669     0.346120    -2.489194
 C     3.012605     2.405005     0.210543
 H     2.702811     2.447920     1.257988
 C     3.856927     2.280688    -2.433405
 H     4.204172     2.236317    -3.467246
 C     3.757142     3.454471    -0.319033
 H     4.020304     4.319964     0.291156
 C     4.163864     3.391785    -1.651156
Cl     5.070544     4.702617    -2.336187
 C     4.417267    -1.152225     0.678015
 O     4.312108    -1.314679    -0.652630
 C     5.246308    -2.086182    -1.347757
 H     4.898152    -2.129029    -2.387726
 H     6.253790    -1.635377    -1.322359
 H     5.302079    -3.114668    -0.950670
 C     3.483862    -0.183364     2.673701
 O     2.553724     0.620696     3.222698
 C     2.495133     0.757080     4.615180
 H     1.619380     1.381997     4.827796
 H     3.394149     1.253721     5.020130
 H     2.363079    -0.220536     5.108325
 C     4.584057    -0.649585     3.410518
 H     4.670138    -0.432261     4.473928
 C     5.525625    -1.605414     1.400253
 H     6.340095    -2.129653     0.901916
 C     5.583442    -1.366909     2.769055
 H     6.441915    -1.724564     3.342720
 C     1.846574    -2.774185    -0.420180
 O     2.177710    -2.947658     0.870588
 C     2.437475    -4.223711     1.374378
 H     2.627678    -4.094744     2.446882
 H     1.573680    -4.898100     1.241053
 H     3.325193    -4.679507     0.901203
 C     1.003619    -1.238830    -2.068343
 O     0.558235     0.009905    -2.310497
 C     0.112924     0.348652    -3.592375
 H    -0.184065     1.402923    -3.550069
 H    -0.761791    -0.251760    -3.890656
 H     0.911636     0.223397    -4.345132
 C     0.906492    -2.283217    -2.997698
 H     0.483528    -2.110342    -3.985890
 C     1.758557    -3.824206    -1.337814
 H     2.004850    -4.843727    -1.043026
 C     1.308687    -3.560051    -2.628307
 H     1.215701    -4.379539    -3.343919
 C    -1.444777    -2.420304    -0.091573
 H    -1.016835    -2.357926     0.908042
 C    -2.471893    -1.382512    -1.988955
 H    -2.853829    -0.505708    -2.509058
 C    -1.473745    -3.650717    -0.734402
 H    -1.063034    -4.540116    -0.254886
 C    -2.488221    -2.604253    -2.660257
 H    -2.876314    -2.677085    -3.677781
 C    -1.994239    -3.735703    -2.023461
Cl    -1.968106    -5.257330    -2.860681
 C    -3.744823     1.741960     1.714332
 O    -3.007357     2.774374     1.245080
 C    -3.525809     4.071096     1.265362
 H    -2.825289     4.694352     0.693748
 H    -4.516893     4.118237     0.781675
 H    -3.605040     4.471459     2.291643
 C    -3.969198    -0.637594     1.927530
 O    -3.475260    -1.854940     1.646251
 C    -4.115952    -3.005357     2.106575
 H    -3.551247    -3.854291     1.698596
 H    -5.158687    -3.067491     1.747777
 H    -4.111741    -3.067112     3.209038
 C    -5.092034    -0.457025     2.747184
 H    -5.608340    -1.316553     3.173148
 C    -4.870245     1.937112     2.523334
 H    -5.203174     2.942575     2.778966
 C    -5.540904     0.828570     3.025997
 H    -6.416794     0.968642     3.663817
 C    -1.723281     2.563764    -1.582537
 O    -0.450946     2.653151    -1.157330
 C     0.340837     3.717455    -1.606595
 H     1.320743     3.596589    -1.136429
 H     0.471641     3.698520    -2.702627
 H    -0.084324     4.694299    -1.316214
 C    -3.844638     1.425134    -1.506046
 O    -4.564087     0.391136    -1.034814
 C    -5.954228     0.373334    -1.169360
 H    -6.307736    -0.486354    -0.585845
 H    -6.268937     0.246442    -2.220451
 H    -6.412361     1.291379    -0.762719
 C    -4.401145     2.374019    -2.373918
 H    -5.442334     2.299967    -2.685711
 C    -2.270016     3.508753    -2.466725
 H    -1.664353     4.328976    -2.847591
 C    -3.601299     3.405198    -2.848203
 H    -4.023617     4.145372    -3.532321
