  90
scf done:    -4001.859521
 C     0.396173    -2.403946    -3.103623
 H    -0.113769    -2.522809    -4.067089
 H     1.481776    -2.456602    -3.250434
 C    -0.142562    -3.247208    -2.001750
 H    -1.006694    -3.872349    -2.262873
 H     0.606426    -3.862478    -1.480847
 H    -0.540607    -2.612264    -1.101213
Co    -0.332772    -1.064456    -1.894182
 C     1.896934    -0.875244     0.780892
 C     3.069544    -0.934351    -1.874932
 C     1.699127     1.481719    -0.993138
 C    -1.917546     1.461472    -0.102465
 C    -3.579850    -0.469584    -1.302362
 C    -2.069974    -1.146557     1.100599
 P    -1.863632    -0.320070    -0.551737
 P     1.531688    -0.387064    -0.950896
 C    -0.873039    -0.179130    -3.233897
 O    -1.176133     0.463980    -4.153738
 C     1.378803    -0.144973     1.862539
 H     0.839464     0.787101     1.686678
 C     2.550346    -2.083100     1.064875
 H     2.922998    -2.710546     0.252889
 C     1.548810    -0.573337     3.176156
 H     1.162129     0.006014     4.016391
 C     2.730452    -2.526737     2.373125
 H     3.247786    -3.462434     2.593308
 C     2.234722    -1.757518     3.418326
 F     2.410815    -2.168109     4.672782
 H     2.791897    -0.747362    -2.923204
 H     3.116838    -2.029299    -1.772461
 C     4.383692    -0.294115    -1.562408
 C     5.220861    -0.769136    -0.542355
 H     4.931062    -1.651773     0.028930
 C     4.805693     0.830547    -2.286711
 H     4.190363     1.197187    -3.113127
 C     6.414471    -0.120752    -0.233736
 H     7.045734    -0.507708     0.569836
 C     5.995594     1.484615    -1.976765
 H     6.294956     2.364639    -2.550755
 C     6.802613     1.016128    -0.941654
 H     7.735232     1.528300    -0.694551
 H     0.698037     1.835782    -1.265574
 H     2.341508     1.669865    -1.867907
 C     2.191531     2.260136     0.193034
 C     3.460322     2.072281     0.754644
 H     4.140037     1.335707     0.328693
 C     1.342693     3.207232     0.779726
 H     0.350757     3.365005     0.354071
 C     3.859500     2.802821     1.870648
 H     4.853658     2.634327     2.291805
 C     1.738088     3.937157     1.898715
 H     1.052191     4.667236     2.336009
 C     3.000727     3.734935     2.452517
 H     3.315772     4.302218     3.331683
 C    -2.169466     1.932014     1.191097
 H    -2.279051     1.237184     2.024411
 C    -1.803155     2.398100    -1.142187
 H    -1.609739     2.061001    -2.163619
 C    -2.309719     3.294487     1.447392
 H    -2.508786     3.668033     2.453260
 C    -1.954499     3.760594    -0.904241
 H    -1.871702     4.493637    -1.708528
 C    -2.209206     4.191976     0.393394
 F    -2.351398     5.493095     0.630210
 H    -3.726728    -1.543582    -1.491239
 H    -3.479848     0.004730    -2.290234
 C    -4.698865     0.140088    -0.517281
 C    -5.048931     1.483661    -0.714977
 H    -4.531905     2.062736    -1.483194
 C    -5.396551    -0.581329     0.461346
 H    -5.169272    -1.637403     0.623750
 C    -6.039239     2.090485     0.051612
 H    -6.289498     3.139798    -0.122264
 C    -6.390345     0.022288     1.230426
 H    -6.920357    -0.564167     1.984860
 C    -6.710885     1.363758     1.033983
 H    -7.488362     1.838620     1.636922
 H    -3.050460    -0.861382     1.514385
 H    -1.291915    -0.718907     1.749322
 C    -1.898661    -2.637242     1.053619
 C    -0.726730    -3.213511     1.556809
 H     0.031758    -2.570280     2.003165
 C    -2.861258    -3.485784     0.490634
 H    -3.789795    -3.072339     0.093953
 C    -0.514268    -4.588086     1.490496
 H     0.411745    -5.007869     1.891015
 C    -2.652339    -4.861614     0.421918
 H    -3.417449    -5.502240    -0.023168
 C    -1.474837    -5.419371     0.917701
 H    -1.310477    -6.497949     0.861860
