  94
scf done:    -5023.077404
 C     0.705599    -0.109015     3.576762
 H     0.372933    -0.784701     4.374288
 H     1.791223     0.036342     3.622928
 C    -0.088989     1.145028     3.448327
 H    -0.921528     1.247973     4.159028
 H     0.517940     2.063162     3.449957
 H    -0.625016     1.225964     2.406730
Co    -0.119473    -0.347831     1.831696
 C     1.354392     1.464284    -0.727922
 C     3.081705     0.892800     1.456222
 C     2.414444    -1.177179    -0.321137
 C    -1.552267    -1.471257    -0.961326
 C    -3.390337    -0.767699     1.116529
 C    -2.256425     1.306180    -0.376808
 P    -1.769929    -0.280494     0.410269
 P     1.611536     0.198129     0.591994
 C    -0.344914    -1.996658     2.183174
 O    -0.417745    -3.134118     2.397241
 C     1.708391     1.297843    -2.071324
 H     2.225390     0.390021    -2.388934
 C     0.681466     2.639139    -0.362073
 H     0.361079     2.774587     0.673877
 C     1.392916     2.265769    -3.023865
 H     1.655221     2.123400    -4.073637
 C     0.389496     3.630577    -1.291550
 H    -0.135200     4.539781    -0.996118
 C     0.737511     3.427267    -2.625215
Cl     0.330622     4.628912    -3.810445
 C     3.467737     2.239330     1.411560
 H     2.927078     2.944116     0.776704
 C     3.822882     0.027403     2.269707
 H     3.549067    -1.030289     2.319096
 C     4.549589     2.700590     2.149863
 H     4.855946     3.747710     2.110442
 C     4.914179     0.474347     3.010966
 H     5.465446    -0.237205     3.626161
 C     5.283364     1.823917     2.958243
 O     6.317950     2.358033     3.638136
 C     7.081801     1.526529     4.464764
 H     7.571325     0.716534     3.895220
 H     7.856436     2.158036     4.918166
 H     6.474262     1.075140     5.269166
 C     1.767257    -2.412298    -0.457203
 H     0.791095    -2.561631     0.004416
 C     3.680891    -1.028979    -0.899196
 H     4.221198    -0.085587    -0.783032
 C     2.348672    -3.451539    -1.167843
 H     1.839784    -4.409454    -1.287906
 C     4.278374    -2.062579    -1.616382
 H     5.266459    -1.908532    -2.050822
 C     3.606571    -3.284962    -1.760117
 O     4.095209    -4.342165    -2.434896
 C     5.347842    -4.234639    -3.049466
 H     6.150934    -4.040515    -2.316594
 H     5.541429    -5.196987    -3.540000
 H     5.364610    -3.436272    -3.812514
 C    -2.012316    -2.785498    -0.808528
 H    -2.628745    -3.049616     0.053585
 C    -0.741479    -1.170576    -2.063820
 H    -0.326940    -0.169052    -2.182726
 C    -1.672880    -3.773428    -1.728685
 H    -2.019540    -4.799669    -1.597625
 C    -0.411198    -2.143935    -2.999740
 H     0.232229    -1.906183    -3.848060
 C    -0.871470    -3.446425    -2.820767
Cl    -0.408319    -4.679714    -3.944952
 C    -4.546547    -0.838535     0.320975
 H    -4.485336    -0.618218    -0.748360
 C    -3.501100    -1.031869     2.479491
 H    -2.599813    -0.969690     3.095687
 C    -5.765926    -1.183988     0.874689
 H    -6.671258    -1.249210     0.268221
 C    -4.726234    -1.373558     3.054664
 H    -4.775115    -1.575718     4.124767
 C    -5.866523    -1.456310     2.250185
 O    -7.092312    -1.782992     2.698740
 C    -7.260213    -2.068651     4.059532
 H    -7.003196    -1.203061     4.695200
 H    -8.321020    -2.310568     4.201619
 H    -6.650934    -2.933731     4.375163
 C    -2.479773     2.387722     0.492937
 H    -2.361394     2.247205     1.571373
 C    -2.455791     1.516466    -1.740440
 H    -2.332213     0.695740    -2.448182
 C    -2.850681     3.631896     0.016505
 H    -3.022478     4.472975     0.690930
 C    -2.812169     2.770662    -2.239983
 H    -2.929093     2.898361    -3.316014
 C    -2.999379     3.842527    -1.363642
 O    -3.313591     5.093859    -1.743098
 C    -3.439191     5.371377    -3.112733
 H    -4.258488     4.791562    -3.572898
 H    -3.672765     6.440288    -3.194951
 H    -2.500213     5.164150    -3.653318
