  82
scf done:    -5262.836640
 C     0.040073     2.476347    -2.591117
 H     1.105788     2.714086    -2.687186
 H    -0.430577     2.434990    -3.579673
 C    -0.731391     3.213893    -1.556123
 H    -0.191399     4.050330    -1.089533
 H    -1.736726     3.530589    -1.862881
 H    -0.917451     2.564851    -0.591611
Co    -0.408336     1.057380    -1.333396
 C    -3.408373     0.938030    -0.002697
 O    -2.156955    -1.420732    -0.551687
 O    -1.645090    -0.076519     1.600600
 C     1.952220    -1.126436    -0.263773
 O     2.678406     0.934718    -1.852774
 O     2.344514     1.250585     0.674029
 P     1.540615     0.600524    -0.660735
 P    -1.786454     0.118633    -0.046961
 C    -0.919565     0.135536    -2.680463
 O    -1.204429    -0.496371    -3.603598
 C    -4.000084     1.399461     1.176878
 H    -3.494015     1.241247     2.130315
 C    -4.060089     1.145116    -1.225796
 H    -3.601786     0.798073    -2.155509
 C    -5.228677     2.052181     1.140709
 H    -5.696224     2.416958     2.056598
 C    -5.294099     1.782373    -1.270693
 H    -5.812820     1.934856    -2.218186
 C    -5.870505     2.235852    -0.083158
Cl    -7.399690     3.039545    -0.132380
 C    -3.351243    -2.071356    -0.375034
 C    -3.977859    -2.165362     0.868558
 H    -3.529687    -1.691425     1.742353
 C    -3.917397    -2.668981    -1.501172
 H    -3.404070    -2.569039    -2.459493
 C    -5.180567    -2.859273     0.980868
 H    -5.695617    -2.946312     1.939063
 C    -5.114626    -3.368216    -1.388543
 H    -5.579262    -3.845304    -2.253202
 C    -5.733889    -3.452863    -0.146422
 F    -6.882969    -4.117614    -0.035736
 C    -0.567553    -0.693591     2.188183
 C    -0.401809    -2.076977     2.089533
 H    -1.101358    -2.666043     1.495907
 C     0.320789     0.075305     2.933940
 H     0.168187     1.154093     2.991155
 C     0.663266    -2.692094     2.736810
 H     0.830128    -3.767716     2.662151
 C     1.389065    -0.537997     3.582567
 H     2.110507     0.034709     4.167983
 C     1.550106    -1.911986     3.468653
 F     2.592137    -2.496601     4.059530
 C     1.187603    -2.136837    -0.856641
 H     0.325724    -1.877888    -1.474449
 C     3.038237    -1.476120     0.547702
 H     3.632968    -0.693067     1.019171
 C     1.500001    -3.476240    -0.649819
 H     0.899998    -4.267547    -1.101518
 C     3.358762    -2.811516     0.763912
 H     4.192319    -3.089334     1.410160
 C     2.582169    -3.802688     0.166045
Cl     2.942793    -5.467597     0.474419
 C     3.968578     0.477836    -1.802409
 C     4.946661     1.191549    -1.108565
 H     4.678837     2.119398    -0.600843
 C     4.299109    -0.706210    -2.463661
 H     3.517096    -1.250981    -2.995052
 C     6.255569     0.716584    -1.069564
 H     7.040068     1.255329    -0.535196
 C     5.604879    -1.184293    -2.427781
 H     5.886885    -2.109698    -2.932810
 C     6.567569    -0.467454    -1.726396
 F     7.819017    -0.924760    -1.685359
 C     2.345442     2.575774     0.969236
 C     2.308956     3.570877    -0.012975
 H     2.291928     3.292405    -1.067345
 C     2.428327     2.939508     2.317088
 H     2.487299     2.152513     3.069265
 C     2.320756     4.915961     0.353378
 H     2.293390     5.705552    -0.399932
 C     2.448963     4.280567     2.684873
 H     2.514063     4.581224     3.732104
 C     2.385166     5.257465     1.697268
 F     2.398137     6.543156     2.047978
